/*---------------------------------------------------------------------------*\
| =========                 |                                                 |
| \\      /  F ield         | OpenFOAM: The Open Source CFD Toolbox           |
|  \\    /   O peration     | Version:  v1706                                 |
|   \\  /    A nd           | Web:      www.OpenFOAM.com                      |
|    \\/     M anipulation  |                                                 |
\*---------------------------------------------------------------------------*/
Build  : v1706-17752679325a
Arch   : "LSB;label=32;scalar=64"
Exec   : surfaceFeatureExtract
Date   : Nov 14 2017
Time   : 22:47:50
Host   : "Explorer"
PID    : 481
Case   : /mnt/d/sandor-v1706/SBMultiphase/DTCHull
nProcs : 1
sigFpe : Enabling floating point exception trapping (FOAM_SIGFPE).
fileModificationChecking : Monitoring run-time modified files using timeStampMaster (fileModificationSkew 10)
allowSystemOperations : Allowing user-supplied system call operations

// * * * * * * * * * * * * * * * * * * * * * * * * * * * * * * * * * * * * * //
Create time


Note: Feature line extraction only valid on closed manifold surfaces

Reading surfaceFeatureExtractDict

Surfaces     : DTC-scaled.stl
Output       : DTC-scaled
Load options : offset
Write options: writeObj=yes writeVTK=off

Statistics:
Triangles    : 116062 in 1 region(s)
Vertices     : 58033
Bounding Box : (-0.113504 -0.429253 -2.51549e-11) (6.16209 0.429252 0.572322)

Constructing feature set from included angle 150
Selecting edges based purely on geometric tests: no

Initial Feature set:
    points : 3
    edges  : 911
    of which
        region edges   : 0
        external edges : 909
        internal edges : 2

Final Feature set:
    points : 927
    of which
        convex             : 2
        concave            : 0
        mixed              : 1
        non-feature        : 924
    edges  : 911
    of which
        external edges     : 909
        internal edges     : 2
        flat edges         : 0
        open edges         : 0
        multiply connected : 0

Writing extendedFeatureEdgeMesh to "/mnt/d/sandor-v1706/SBMultiphase/DTCHull/constant/extendedFeatureEdgeMesh/DTC-scaled.extendedFeatureEdgeMesh"

Writing extendedEdgeMesh components to "/mnt/d/sandor-v1706/SBMultiphase/DTCHull/constant/extendedFeatureEdgeMesh/DTC-scaled"
Writing 2 convex feature points to "/mnt/d/sandor-v1706/SBMultiphase/DTCHull/constant/extendedFeatureEdgeMesh/DTC-scaled_convexFeaturePts.obj"
Writing 0 concave feature points to "/mnt/d/sandor-v1706/SBMultiphase/DTCHull/constant/extendedFeatureEdgeMesh/DTC-scaled_concaveFeaturePts.obj"
Writing 1 mixed feature points to "/mnt/d/sandor-v1706/SBMultiphase/DTCHull/constant/extendedFeatureEdgeMesh/DTC-scaled_mixedFeaturePts.obj"
Writing 1 mixed feature point structure to "/mnt/d/sandor-v1706/SBMultiphase/DTCHull/constant/extendedFeatureEdgeMesh/DTC-scaled_mixedFeaturePtsStructure.obj"
Writing 909 external edges to "/mnt/d/sandor-v1706/SBMultiphase/DTCHull/constant/extendedFeatureEdgeMesh/DTC-scaled_externalEdges.obj"
Writing 2 internal edges to "/mnt/d/sandor-v1706/SBMultiphase/DTCHull/constant/extendedFeatureEdgeMesh/DTC-scaled_internalEdges.obj"
Writing 0 flat edges to "/mnt/d/sandor-v1706/SBMultiphase/DTCHull/constant/extendedFeatureEdgeMesh/DTC-scaled_flatEdges.obj"
Writing 0 open edges to "/mnt/d/sandor-v1706/SBMultiphase/DTCHull/constant/extendedFeatureEdgeMesh/DTC-scaled_openEdges.obj"
Writing 0 multiple edges to "/mnt/d/sandor-v1706/SBMultiphase/DTCHull/constant/extendedFeatureEdgeMesh/DTC-scaled_multipleEdges.obj"
Writing 0 region edges to "/mnt/d/sandor-v1706/SBMultiphase/DTCHull/constant/extendedFeatureEdgeMesh/DTC-scaled_regionEdges.obj"
Writing 911 edge directions to "/mnt/d/sandor-v1706/SBMultiphase/DTCHull/constant/extendedFeatureEdgeMesh/DTC-scaled_edgeDirections.obj"

Writing featureEdgeMesh to "/mnt/d/sandor-v1706/SBMultiphase/DTCHull/constant/triSurface/DTC-scaled.eMesh"

ExecutionTime = 1.3 s  ClockTime = 2 s

End

