/*---------------------------------------------------------------------------*\
| =========                 |                                                 |
| \\      /  F ield         | OpenFOAM: The Open Source CFD Toolbox           |
|  \\    /   O peration     | Version:  v1712                                 |
|   \\  /    A nd           | Web:      www.OpenFOAM.com                      |
|    \\/     M anipulation  |                                                 |
\*---------------------------------------------------------------------------*/
Build  : v1712
Arch   : "LSB;label=32;scalar=64"
Exec   : interPhaseChangeDyMFoam -parallel
Date   : Jan 18 2018
Time   : 15:49:16
Host   : "compute50"
PID    : 9568
I/O    : uncollated
Case   : /home/sandor/OpenFOAM/sandor-v1712/SBMultiphase/inter_propeller
nProcs : 6
Hosts  :
(
    (compute50 6)
)
Pstream initialized with:
    floatTransfer      : 0
    nProcsSimpleSum    : 0
    commsType          : nonBlocking
    polling iterations : 0
trapFpe: Floating point exception trapping enabled (FOAM_SIGFPE).
fileModificationChecking : Monitoring run-time modified files using timeStampMaster (fileModificationSkew 10)
allowSystemOperations : Allowing user-supplied system call operations

// * * * * * * * * * * * * * * * * * * * * * * * * * * * * * * * * * * * * * //
Create time

Create mesh for time = 0

Selecting dynamicFvMesh dynamicMotionSolverFvMesh
Selecting motion solver: solidBody
Selecting solid-body motion function rotatingMotion
Applying solid body motion to cellZone innerCylinderSmall

PIMPLE: no residual control data found. Calculations will employ 3 corrector loops

Reading field p_rgh

Reading field U

Reading/calculating face flux field phi

AMI: Creating addressing and weights between 18496 source faces and 18720 target faces
AMI: Patch source sum(weights) min/max/average = 0.984261, 1.01509, 1.00007
AMI: Patch target sum(weights) min/max/average = 0.969379, 1.00121, 0.999945
Creating phaseChangeTwoPhaseMixture

Selecting phaseChange model SchnerrSauer
Selecting incompressible transport model Newtonian
Selecting incompressible transport model Newtonian
Selecting turbulence model type RAS
Selecting RAS turbulence model kEpsilon
RAS
{
    RASModel        kEpsilon;
    turbulence      on;
    printCoeffs     on;
    Cmu             0.09;
    C1              1.44;
    C2              1.92;
    C3              0;
    sigmak          1;
    sigmaEps        1.3;
}


Reading g

Reading hRef
Calculating field g.h

No finite volume options present

Reading/calculating face velocity Uf

Courant Number mean: 0 max: 0

Starting time loop

Courant Number mean: 0 max: 0
deltaT = 1.20482e-05
Time = 1.20482e-05

PIMPLE: iteration 1
AMI: Creating addressing and weights between 18496 source faces and 18720 target faces
AMI: Patch source sum(weights) min/max/average = 0.984261, 1.01509, 1.00007
AMI: Patch target sum(weights) min/max/average = 0.969362, 1.00121, 0.999945
Execution time for mesh.update() = 1.09 s
GAMG:  Solving for pcorr, Initial residual = 1, Final residual = 0.00586666, No Iterations 8
time step continuity errors : sum local = 1.46135e-09, global = -1.79415e-10, cumulative = -1.79415e-10
smoothSolver:  Solving for alpha.water, Initial residual = 1, Final residual = 1.33526, No Iterations 10
Phase-1 volume fraction = 1  Min(alpha.water) = 1  Max(alpha.water) = 1
MULES: Correcting alpha.water
MULES: Correcting alpha.water
Liquid phase volume fraction = 1  Min(alpha.water) = 1  Max(alpha.water) = 1
smoothSolver:  Solving for Ux, Initial residual = 1, Final residual = 0.0150275, No Iterations 1
smoothSolver:  Solving for Uy, Initial residual = 1, Final residual = 0.000105937, No Iterations 1
smoothSolver:  Solving for Uz, Initial residual = 1, Final residual = 0.0150404, No Iterations 1
GAMG:  Solving for p_rgh, Initial residual = 1, Final residual = 5.65649e-10, No Iterations 34
PIMPLE: iteration 2
smoothSolver:  Solving for alpha.water, Initial residual = 0.814717, Final residual = 0.522617, No Iterations 10
Phase-1 volume fraction = 1  Min(alpha.water) = 1  Max(alpha.water) = 1
MULES: Correcting alpha.water
MULES: Correcting alpha.water
Liquid phase volume fraction = 1  Min(alpha.water) = 1  Max(alpha.water) = 1
smoothSolver:  Solving for Ux, Initial residual = 0.232589, Final residual = 3.17967e-05, No Iterations 1
smoothSolver:  Solving for Uy, Initial residual = 0.0563143, Final residual = 0.000106503, No Iterations 1
smoothSolver:  Solving for Uz, Initial residual = 0.234853, Final residual = 3.21713e-05, No Iterations 1
GAMG:  Solving for p_rgh, Initial residual = 0.0377907, Final residual = 7.6836e-10, No Iterations 21
PIMPLE: iteration 3
smoothSolver:  Solving for alpha.water, Initial residual = 0.727038, Final residual = 0.495982, No Iterations 10
Phase-1 volume fraction = 1  Min(alpha.water) = 1  Max(alpha.water) = 1
MULES: Correcting alpha.water
MULES: Correcting alpha.water
Liquid phase volume fraction = 1  Min(alpha.water) = 1  Max(alpha.water) = 1
smoothSolver:  Solving for Ux, Initial residual = 0.0515895, Final residual = 2.21773e-07, No Iterations 2
smoothSolver:  Solving for Uy, Initial residual = 0.0079357, Final residual = 1.24542e-07, No Iterations 2
smoothSolver:  Solving for Uz, Initial residual = 0.0516786, Final residual = 2.24346e-07, No Iterations 2
GAMG:  Solving for p_rgh, Initial residual = 0.00470893, Final residual = 7.08133e-10, No Iterations 16
smoothSolver:  Solving for epsilon, Initial residual = 0.000219246, Final residual = 7.88637e-07, No Iterations 1
smoothSolver:  Solving for k, Initial residual = 1, Final residual = 3.1752e-07, No Iterations 3
ExecutionTime = 19.31 s  ClockTime = 20 s

Courant Number mean: 1.85028e-05 max: 0.00214663
deltaT = 1.45287e-05
Time = 2.65769e-05

PIMPLE: iteration 1
AMI: Creating addressing and weights between 18496 source faces and 18720 target faces
AMI: Patch source sum(weights) min/max/average = 0.984261, 1.0151, 1.00007
AMI: Patch target sum(weights) min/max/average = 0.969298, 1.00121, 0.999945
Execution time for mesh.update() = 1.08 s
GAMG:  Solving for pcorr, Initial residual = 1, Final residual = 0.00534804, No Iterations 8
time step continuity errors : sum local = 2.15568e-09, global = -2.71388e-10, cumulative = -4.50803e-10
smoothSolver:  Solving for alpha.water, Initial residual = 0.792299, Final residual = 0.502874, No Iterations 10
Phase-1 volume fraction = 1  Min(alpha.water) = 1  Max(alpha.water) = 1
MULES: Correcting alpha.water
MULES: Correcting alpha.water
Liquid phase volume fraction = 1  Min(alpha.water) = 1  Max(alpha.water) = 1
smoothSolver:  Solving for Ux, Initial residual = 0.376011, Final residual = 9.39247e-05, No Iterations 1
smoothSolver:  Solving for Uy, Initial residual = 0.989542, Final residual = 0.00020557, No Iterations 1
smoothSolver:  Solving for Uz, Initial residual = 0.37607, Final residual = 9.54427e-05, No Iterations 1
GAMG:  Solving for p_rgh, Initial residual = 0.0186273, Final residual = 7.0384e-10, No Iterations 20
PIMPLE: iteration 2
smoothSolver:  Solving for alpha.water, Initial residual = 0.717942, Final residual = 0.503492, No Iterations 10
Phase-1 volume fraction = 1  Min(alpha.water) = 1  Max(alpha.water) = 1
MULES: Correcting alpha.water
MULES: Correcting alpha.water
Liquid phase volume fraction = 1  Min(alpha.water) = 1  Max(alpha.water) = 1
smoothSolver:  Solving for Ux, Initial residual = 0.01778, Final residual = 1.45207e-05, No Iterations 1
smoothSolver:  Solving for Uy, Initial residual = 0.00272808, Final residual = 7.60362e-06, No Iterations 1
smoothSolver:  Solving for Uz, Initial residual = 0.0179734, Final residual = 1.47491e-05, No Iterations 1
GAMG:  Solving for p_rgh, Initial residual = 0.00486968, Final residual = 6.47622e-10, No Iterations 16
PIMPLE: iteration 3
smoothSolver:  Solving for alpha.water, Initial residual = 0.701018, Final residual = 0.496807, No Iterations 10
Phase-1 volume fraction = 1  Min(alpha.water) = 1  Max(alpha.water) = 1
MULES: Correcting alpha.water
MULES: Correcting alpha.water
Liquid phase volume fraction = 1  Min(alpha.water) = 1  Max(alpha.water) = 1
smoothSolver:  Solving for Ux, Initial residual = 0.00515357, Final residual = 1.89188e-07, No Iterations 2
smoothSolver:  Solving for Uy, Initial residual = 0.00037527, Final residual = 5.6157e-07, No Iterations 1
smoothSolver:  Solving for Uz, Initial residual = 0.00512732, Final residual = 1.90807e-07, No Iterations 2
GAMG:  Solving for p_rgh, Initial residual = 0.00125578, Final residual = 9.82241e-10, No Iterations 14
smoothSolver:  Solving for epsilon, Initial residual = 1.80054e-05, Final residual = 2.22963e-08, No Iterations 1
smoothSolver:  Solving for k, Initial residual = 0.153447, Final residual = 3.01633e-07, No Iterations 2
ExecutionTime = 34.77 s  ClockTime = 35 s

Courant Number mean: 5.31615e-05 max: 0.00636782
deltaT = 1.73826e-05
Time = 4.39595e-05

PIMPLE: iteration 1
AMI: Creating addressing and weights between 18496 source faces and 18720 target faces
AMI: Patch source sum(weights) min/max/average = 0.984261, 1.01512, 1.00007
AMI: Patch target sum(weights) min/max/average = 0.969158, 1.00121, 0.999945
Execution time for mesh.update() = 1.08 s
GAMG:  Solving for pcorr, Initial residual = 1, Final residual = 0.00532464, No Iterations 8
time step continuity errors : sum local = 3.07764e-09, global = -3.87801e-10, cumulative = -8.38604e-10
smoothSolver:  Solving for alpha.water, Initial residual = 0.804473, Final residual = 0.497238, No Iterations 10
Phase-1 volume fraction = 1  Min(alpha.water) = 1  Max(alpha.water) = 1
MULES: Correcting alpha.water
MULES: Correcting alpha.water
Liquid phase volume fraction = 1  Min(alpha.water) = 1  Max(alpha.water) = 1
smoothSolver:  Solving for Ux, Initial residual = 0.249245, Final residual = 0.000121087, No Iterations 1
smoothSolver:  Solving for Uy, Initial residual = 0.98075, Final residual = 0.000253934, No Iterations 1
smoothSolver:  Solving for Uz, Initial residual = 0.249447, Final residual = 0.000122805, No Iterations 1
GAMG:  Solving for p_rgh, Initial residual = 0.00504803, Final residual = 8.21791e-10, No Iterations 16
PIMPLE: iteration 2
smoothSolver:  Solving for alpha.water, Initial residual = 0.708906, Final residual = 0.50125, No Iterations 10
Phase-1 volume fraction = 1  Min(alpha.water) = 1  Max(alpha.water) = 1
MULES: Correcting alpha.water
MULES: Correcting alpha.water
Liquid phase volume fraction = 1  Min(alpha.water) = 1  Max(alpha.water) = 1
smoothSolver:  Solving for Ux, Initial residual = 0.00302034, Final residual = 1.03425e-06, No Iterations 1
smoothSolver:  Solving for Uy, Initial residual = 0.00031191, Final residual = 3.16533e-06, No Iterations 1
smoothSolver:  Solving for Uz, Initial residual = 0.00308447, Final residual = 1.04257e-06, No Iterations 1
GAMG:  Solving for p_rgh, Initial residual = 0.000997631, Final residual = 9.07202e-10, No Iterations 14
PIMPLE: iteration 3
smoothSolver:  Solving for alpha.water, Initial residual = 0.734175, Final residual = 0.505388, No Iterations 10
Phase-1 volume fraction = 1  Min(alpha.water) = 1  Max(alpha.water) = 1
MULES: Correcting alpha.water
MULES: Correcting alpha.water
Liquid phase volume fraction = 1  Min(alpha.water) = 1  Max(alpha.water) = 1
smoothSolver:  Solving for Ux, Initial residual = 0.000963794, Final residual = 2.595e-07, No Iterations 1
smoothSolver:  Solving for Uy, Initial residual = 6.42891e-05, Final residual = 9.02161e-08, No Iterations 1
smoothSolver:  Solving for Uz, Initial residual = 0.00094042, Final residual = 2.59469e-07, No Iterations 1
GAMG:  Solving for p_rgh, Initial residual = 0.000282399, Final residual = 8.22021e-10, No Iterations 11
smoothSolver:  Solving for epsilon, Initial residual = 2.18409e-05, Final residual = 3.11706e-08, No Iterations 1
smoothSolver:  Solving for k, Initial residual = 0.0811215, Final residual = 2.26869e-07, No Iterations 2
ExecutionTime = 49.36 s  ClockTime = 50 s

Courant Number mean: 0.000107786 max: 0.0140778
deltaT = 2.07835e-05
Time = 6.47429e-05

PIMPLE: iteration 1
AMI: Creating addressing and weights between 18496 source faces and 18720 target faces
AMI: Patch source sum(weights) min/max/average = 0.98426, 1.01515, 1.00007
AMI: Patch target sum(weights) min/max/average = 0.9689, 1.00121, 0.999944
Execution time for mesh.update() = 1.04 s
GAMG:  Solving for pcorr, Initial residual = 1, Final residual = 0.00532413, No Iterations 8
time step continuity errors : sum local = 4.40135e-09, global = -5.57286e-10, cumulative = -1.39589e-09
smoothSolver:  Solving for alpha.water, Initial residual = 0.818007, Final residual = 0.506563, No Iterations 10
Phase-1 volume fraction = 1  Min(alpha.water) = 1  Max(alpha.water) = 1
MULES: Correcting alpha.water
MULES: Correcting alpha.water
Liquid phase volume fraction = 1  Min(alpha.water) = 1  Max(alpha.water) = 1
smoothSolver:  Solving for Ux, Initial residual = 0.191781, Final residual = 0.000116232, No Iterations 1
smoothSolver:  Solving for Uy, Initial residual = 0.963383, Final residual = 0.000310379, No Iterations 1
smoothSolver:  Solving for Uz, Initial residual = 0.191941, Final residual = 0.000117807, No Iterations 1
GAMG:  Solving for p_rgh, Initial residual = 0.00249185, Final residual = 8.16182e-10, No Iterations 15
PIMPLE: iteration 2
smoothSolver:  Solving for alpha.water, Initial residual = 0.724137, Final residual = 0.507675, No Iterations 10
Phase-1 volume fraction = 1  Min(alpha.water) = 1  Max(alpha.water) = 1
MULES: Correcting alpha.water
MULES: Correcting alpha.water
Liquid phase volume fraction = 1  Min(alpha.water) = 1  Max(alpha.water) = 1
smoothSolver:  Solving for Ux, Initial residual = 0.00155814, Final residual = 6.67757e-07, No Iterations 1
smoothSolver:  Solving for Uy, Initial residual = 0.000182944, Final residual = 3.63e-06, No Iterations 1
smoothSolver:  Solving for Uz, Initial residual = 0.00159225, Final residual = 6.6981e-07, No Iterations 1
GAMG:  Solving for p_rgh, Initial residual = 0.000523921, Final residual = 8.29048e-10, No Iterations 13
PIMPLE: iteration 3
smoothSolver:  Solving for alpha.water, Initial residual = 0.714928, Final residual = 0.500088, No Iterations 10
Phase-1 volume fraction = 1  Min(alpha.water) = 1  Max(alpha.water) = 1
MULES: Correcting alpha.water
MULES: Correcting alpha.water
Liquid phase volume fraction = 1  Min(alpha.water) = 1  Max(alpha.water) = 1
smoothSolver:  Solving for Ux, Initial residual = 0.000545474, Final residual = 1.71357e-07, No Iterations 1
smoothSolver:  Solving for Uy, Initial residual = 2.96658e-05, Final residual = 1.02634e-07, No Iterations 1
smoothSolver:  Solving for Uz, Initial residual = 0.00051807, Final residual = 1.71445e-07, No Iterations 1
GAMG:  Solving for p_rgh, Initial residual = 0.000152036, Final residual = 6.3241e-10, No Iterations 10
smoothSolver:  Solving for epsilon, Initial residual = 2.6883e-05, Final residual = 4.51238e-08, No Iterations 1
smoothSolver:  Solving for k, Initial residual = 0.0601241, Final residual = 2.85247e-07, No Iterations 2
ExecutionTime = 63.63 s  ClockTime = 64 s

Courant Number mean: 0.000192015 max: 0.0262395
deltaT = 2.4612e-05
Time = 8.9355e-05

PIMPLE: iteration 1
AMI: Creating addressing and weights between 18496 source faces and 18720 target faces
AMI: Patch source sum(weights) min/max/average = 0.984258, 1.01521, 1.00007
AMI: Patch target sum(weights) min/max/average = 0.968467, 1.00122, 0.999943
Execution time for mesh.update() = 1.1 s
GAMG:  Solving for pcorr, Initial residual = 1, Final residual = 0.00532128, No Iterations 8
time step continuity errors : sum local = 6.17578e-09, global = -7.8641e-10, cumulative = -2.1823e-09
smoothSolver:  Solving for alpha.water, Initial residual = 0.7888, Final residual = 0.505526, No Iterations 10
Phase-1 volume fraction = 1  Min(alpha.water) = 1  Max(alpha.water) = 1
MULES: Correcting alpha.water
MULES: Correcting alpha.water
Liquid phase volume fraction = 1  Min(alpha.water) = 1  Max(alpha.water) = 1
smoothSolver:  Solving for Ux, Initial residual = 0.159239, Final residual = 0.000119268, No Iterations 1
smoothSolver:  Solving for Uy, Initial residual = 0.947899, Final residual = 0.000377779, No Iterations 1
smoothSolver:  Solving for Uz, Initial residual = 0.15941, Final residual = 0.000120809, No Iterations 1
GAMG:  Solving for p_rgh, Initial residual = 0.00176321, Final residual = 7.6581e-10, No Iterations 15
PIMPLE: iteration 2
smoothSolver:  Solving for alpha.water, Initial residual = 0.721307, Final residual = 0.508431, No Iterations 10
Phase-1 volume fraction = 1  Min(alpha.water) = 1  Max(alpha.water) = 1
MULES: Correcting alpha.water
MULES: Correcting alpha.water
Liquid phase volume fraction = 1  Min(alpha.water) = 1  Max(alpha.water) = 1
smoothSolver:  Solving for Ux, Initial residual = 0.000775057, Final residual = 8.02852e-07, No Iterations 1
smoothSolver:  Solving for Uy, Initial residual = 0.000162299, Final residual = 4.74799e-06, No Iterations 1
smoothSolver:  Solving for Uz, Initial residual = 0.000795492, Final residual = 8.1066e-07, No Iterations 1
GAMG:  Solving for p_rgh, Initial residual = 0.00040192, Final residual = 6.3543e-10, No Iterations 13
PIMPLE: iteration 3
smoothSolver:  Solving for alpha.water, Initial residual = 0.712895, Final residual = 0.505639, No Iterations 10
Phase-1 volume fraction = 1  Min(alpha.water) = 1  Max(alpha.water) = 1
MULES: Correcting alpha.water
MULES: Correcting alpha.water
Liquid phase volume fraction = 1  Min(alpha.water) = 1  Max(alpha.water) = 1
smoothSolver:  Solving for Ux, Initial residual = 0.000269444, Final residual = 2.32779e-07, No Iterations 1
smoothSolver:  Solving for Uy, Initial residual = 2.19431e-05, Final residual = 1.57535e-07, No Iterations 1
smoothSolver:  Solving for Uz, Initial residual = 0.000265372, Final residual = 2.34143e-07, No Iterations 1
GAMG:  Solving for p_rgh, Initial residual = 0.000106316, Final residual = 8.30832e-10, No Iterations 10
smoothSolver:  Solving for epsilon, Initial residual = 3.32335e-05, Final residual = 6.57558e-08, No Iterations 1
smoothSolver:  Solving for k, Initial residual = 0.0515672, Final residual = 4.83438e-07, No Iterations 2
ExecutionTime = 77.96 s  ClockTime = 78 s

Courant Number mean: 0.000316039 max: 0.0442141
deltaT = 2.93756e-05
Time = 0.000118731

PIMPLE: iteration 1
AMI: Creating addressing and weights between 18496 source faces and 18720 target faces
AMI: Patch source sum(weights) min/max/average = 0.984255, 1.01531, 1.00007
AMI: Patch target sum(weights) min/max/average = 0.96777, 1.00122, 0.999942
Execution time for mesh.update() = 1.05 s
GAMG:  Solving for pcorr, Initial residual = 1, Final residual = 0.00532026, No Iterations 8
time step continuity errors : sum local = 8.78934e-09, global = -1.1266e-09, cumulative = -3.3089e-09
smoothSolver:  Solving for alpha.water, Initial residual = 0.815404, Final residual = 0.503561, No Iterations 10
Phase-1 volume fraction = 1  Min(alpha.water) = 1  Max(alpha.water) = 1
MULES: Correcting alpha.water
MULES: Correcting alpha.water
Liquid phase volume fraction = 1  Min(alpha.water) = 1  Max(alpha.water) = 1
smoothSolver:  Solving for Ux, Initial residual = 0.14023, Final residual = 0.000132535, No Iterations 1
smoothSolver:  Solving for Uy, Initial residual = 0.935758, Final residual = 0.000469095, No Iterations 1
smoothSolver:  Solving for Uz, Initial residual = 0.140365, Final residual = 0.000134188, No Iterations 1
GAMG:  Solving for p_rgh, Initial residual = 0.000855799, Final residual = 6.10788e-10, No Iterations 14
PIMPLE: iteration 2
smoothSolver:  Solving for alpha.water, Initial residual = 0.716352, Final residual = 0.505933, No Iterations 10
Phase-1 volume fraction = 1  Min(alpha.water) = 1  Max(alpha.water) = 1
MULES: Correcting alpha.water
MULES: Correcting alpha.water
Liquid phase volume fraction = 1  Min(alpha.water) = 1  Max(alpha.water) = 1
smoothSolver:  Solving for Ux, Initial residual = 0.000381505, Final residual = 7.63174e-07, No Iterations 1
smoothSolver:  Solving for Uy, Initial residual = 0.000169221, Final residual = 6.65101e-06, No Iterations 1
smoothSolver:  Solving for Uz, Initial residual = 0.000384827, Final residual = 7.73236e-07, No Iterations 1
GAMG:  Solving for p_rgh, Initial residual = 0.000272036, Final residual = 7.34326e-10, No Iterations 13
PIMPLE: iteration 3
smoothSolver:  Solving for alpha.water, Initial residual = 0.71114, Final residual = 0.499834, No Iterations 10
Phase-1 volume fraction = 1  Min(alpha.water) = 1  Max(alpha.water) = 1
MULES: Correcting alpha.water
MULES: Correcting alpha.water
Liquid phase volume fraction = 1  Min(alpha.water) = 1  Max(alpha.water) = 1
smoothSolver:  Solving for Ux, Initial residual = 0.00016712, Final residual = 2.47751e-07, No Iterations 1
smoothSolver:  Solving for Uy, Initial residual = 1.99789e-05, Final residual = 2.65853e-07, No Iterations 1
smoothSolver:  Solving for Uz, Initial residual = 0.000161106, Final residual = 2.49842e-07, No Iterations 1
GAMG:  Solving for p_rgh, Initial residual = 7.45768e-05, Final residual = 6.52922e-10, No Iterations 11
smoothSolver:  Solving for epsilon, Initial residual = 4.19786e-05, Final residual = 1.00685e-07, No Iterations 1
smoothSolver:  Solving for k, Initial residual = 0.049854, Final residual = 9.96346e-07, No Iterations 2
ExecutionTime = 91.97 s  ClockTime = 92 s

Courant Number mean: 0.000503343 max: 0.0711771
deltaT = 3.52508e-05
Time = 0.000153981

PIMPLE: iteration 1
AMI: Creating addressing and weights between 18496 source faces and 18720 target faces
AMI: Patch source sum(weights) min/max/average = 0.984251, 1.01546, 1.00007
AMI: Patch target sum(weights) min/max/average = 0.966674, 1.00122, 0.99994
Execution time for mesh.update() = 1.19 s
GAMG:  Solving for pcorr, Initial residual = 1, Final residual = 0.00534728, No Iterations 8
time step continuity errors : sum local = 1.2714e-08, global = -1.65134e-09, cumulative = -4.96025e-09
smoothSolver:  Solving for alpha.water, Initial residual = 0.801742, Final residual = 0.499257, No Iterations 10
Phase-1 volume fraction = 1  Min(alpha.water) = 1  Max(alpha.water) = 1
MULES: Correcting alpha.water
MULES: Correcting alpha.water
Liquid phase volume fraction = 1  Min(alpha.water) = 1  Max(alpha.water) = 1
smoothSolver:  Solving for Ux, Initial residual = 0.12789, Final residual = 0.000152714, No Iterations 1
smoothSolver:  Solving for Uy, Initial residual = 0.926235, Final residual = 0.000592316, No Iterations 1
smoothSolver:  Solving for Uz, Initial residual = 0.128012, Final residual = 0.000154559, No Iterations 1
GAMG:  Solving for p_rgh, Initial residual = 0.000653973, Final residual = 6.12029e-10, No Iterations 13
PIMPLE: iteration 2
smoothSolver:  Solving for alpha.water, Initial residual = 0.707219, Final residual = 0.502371, No Iterations 10
Phase-1 volume fraction = 1  Min(alpha.water) = 1  Max(alpha.water) = 1
MULES: Correcting alpha.water
MULES: Correcting alpha.water
Liquid phase volume fraction = 1  Min(alpha.water) = 1  Max(alpha.water) = 1
smoothSolver:  Solving for Ux, Initial residual = 0.00027807, Final residual = 1.17773e-06, No Iterations 1
smoothSolver:  Solving for Uy, Initial residual = 0.000210876, Final residual = 9.90594e-06, No Iterations 1
smoothSolver:  Solving for Uz, Initial residual = 0.000276855, Final residual = 1.19403e-06, No Iterations 1
GAMG:  Solving for p_rgh, Initial residual = 0.000292116, Final residual = 9.44283e-10, No Iterations 13
PIMPLE: iteration 3
smoothSolver:  Solving for alpha.water, Initial residual = 0.70469, Final residual = 0.49919, No Iterations 10
Phase-1 volume fraction = 1  Min(alpha.water) = 1  Max(alpha.water) = 1
MULES: Correcting alpha.water
MULES: Correcting alpha.water
Liquid phase volume fraction = 1  Min(alpha.water) = 1  Max(alpha.water) = 1
smoothSolver:  Solving for Ux, Initial residual = 0.000156265, Final residual = 4.48491e-07, No Iterations 1
smoothSolver:  Solving for Uy, Initial residual = 2.41083e-05, Final residual = 5.02994e-07, No Iterations 1
smoothSolver:  Solving for Uz, Initial residual = 0.000153252, Final residual = 4.51317e-07, No Iterations 1
GAMG:  Solving for p_rgh, Initial residual = 8.54393e-05, Final residual = 7.74071e-10, No Iterations 11
smoothSolver:  Solving for epsilon, Initial residual = 5.39978e-05, Final residual = 1.61098e-07, No Iterations 1
smoothSolver:  Solving for k, Initial residual = 0.0537362, Final residual = 2.13784e-07, No Iterations 3
ExecutionTime = 106.21 s  ClockTime = 107 s

Courant Number mean: 0.000785488 max: 0.111373
deltaT = 4.23009e-05
Time = 0.000196282

PIMPLE: iteration 1
AMI: Creating addressing and weights between 18496 source faces and 18720 target faces
AMI: Patch source sum(weights) min/max/average = 0.984243, 1.01567, 1.00007
AMI: Patch target sum(weights) min/max/average = 0.964985, 1.00123, 0.999937
Execution time for mesh.update() = 1.08 s
GAMG:  Solving for pcorr, Initial residual = 1, Final residual = 0.00535148, No Iterations 8
time step continuity errors : sum local = 1.83227e-08, global = -2.40246e-09, cumulative = -7.36271e-09
smoothSolver:  Solving for alpha.water, Initial residual = 0.79818, Final residual = 0.498384, No Iterations 10
Phase-1 volume fraction = 1  Min(alpha.water) = 1  Max(alpha.water) = 1
MULES: Correcting alpha.water
MULES: Correcting alpha.water
Liquid phase volume fraction = 1  Min(alpha.water) = 1  Max(alpha.water) = 1
smoothSolver:  Solving for Ux, Initial residual = 0.119042, Final residual = 0.00018149, No Iterations 1
smoothSolver:  Solving for Uy, Initial residual = 0.918432, Final residual = 0.000755564, No Iterations 1
smoothSolver:  Solving for Uz, Initial residual = 0.119166, Final residual = 0.00018362, No Iterations 1
GAMG:  Solving for p_rgh, Initial residual = 0.000618636, Final residual = 7.34502e-10, No Iterations 13
PIMPLE: iteration 2
smoothSolver:  Solving for alpha.water, Initial residual = 0.713501, Final residual = 0.504167, No Iterations 10
Phase-1 volume fraction = 1  Min(alpha.water) = 1  Max(alpha.water) = 1
MULES: Correcting alpha.water
MULES: Correcting alpha.water
Liquid phase volume fraction = 1  Min(alpha.water) = 1  Max(alpha.water) = 1
smoothSolver:  Solving for Ux, Initial residual = 0.000247223, Final residual = 1.98644e-06, No Iterations 1
smoothSolver:  Solving for Uy, Initial residual = 0.000282763, Final residual = 1.51462e-05, No Iterations 1
smoothSolver:  Solving for Uz, Initial residual = 0.000247822, Final residual = 2.01141e-06, No Iterations 1
GAMG:  Solving for p_rgh, Initial residual = 0.000358888, Final residual = 7.11428e-10, No Iterations 14
PIMPLE: iteration 3
smoothSolver:  Solving for alpha.water, Initial residual = 0.714983, Final residual = 0.499957, No Iterations 10
Phase-1 volume fraction = 1  Min(alpha.water) = 1  Max(alpha.water) = 1
MULES: Correcting alpha.water
MULES: Correcting alpha.water
Liquid phase volume fraction = 1  Min(alpha.water) = 1  Max(alpha.water) = 1
smoothSolver:  Solving for Ux, Initial residual = 0.000174588, Final residual = 8.60014e-07, No Iterations 1
smoothSolver:  Solving for Uy, Initial residual = 3.54098e-05, Final residual = 9.87478e-07, No Iterations 1
smoothSolver:  Solving for Uz, Initial residual = 0.000173036, Final residual = 8.64373e-07, No Iterations 1
GAMG:  Solving for p_rgh, Initial residual = 0.000118801, Final residual = 6.20264e-10, No Iterations 12
smoothSolver:  Solving for epsilon, Initial residual = 7.02404e-05, Final residual = 2.66145e-07, No Iterations 1
smoothSolver:  Solving for k, Initial residual = 0.0666588, Final residual = 6.48789e-07, No Iterations 3
ExecutionTime = 120.44 s  ClockTime = 121 s

Courant Number mean: 0.00120385 max: 0.170089
deltaT = 5.02324e-05
Time = 0.000246515

PIMPLE: iteration 1
AMI: Creating addressing and weights between 18496 source faces and 18720 target faces
AMI: Patch source sum(weights) min/max/average = 0.984229, 1.01597, 1.00007
AMI: Patch target sum(weights) min/max/average = 0.962452, 1.00123, 0.999931
Execution time for mesh.update() = 0.94 s
GAMG:  Solving for pcorr, Initial residual = 1, Final residual = 0.00535174, No Iterations 8
time step continuity errors : sum local = 2.58679e-08, global = -3.42969e-09, cumulative = -1.07924e-08
smoothSolver:  Solving for alpha.water, Initial residual = 0.785379, Final residual = 0.50051, No Iterations 10
Phase-1 volume fraction = 1  Min(alpha.water) = 1  Max(alpha.water) = 1
MULES: Correcting alpha.water
MULES: Correcting alpha.water
Liquid phase volume fraction = 1  Min(alpha.water) = 1  Max(alpha.water) = 1
smoothSolver:  Solving for Ux, Initial residual = 0.111351, Final residual = 0.00021679, No Iterations 1
smoothSolver:  Solving for Uy, Initial residual = 0.910903, Final residual = 0.000959326, No Iterations 1
smoothSolver:  Solving for Uz, Initial residual = 0.111473, Final residual = 0.000219265, No Iterations 1
GAMG:  Solving for p_rgh, Initial residual = 0.000869252, Final residual = 6.0471e-10, No Iterations 15
PIMPLE: iteration 2
smoothSolver:  Solving for alpha.water, Initial residual = 0.718536, Final residual = 0.502579, No Iterations 10
Phase-1 volume fraction = 1  Min(alpha.water) = 1  Max(alpha.water) = 1
MULES: Correcting alpha.water
MULES: Correcting alpha.water
Liquid phase volume fraction = 1  Min(alpha.water) = 1  Max(alpha.water) = 1
smoothSolver:  Solving for Ux, Initial residual = 0.000328621, Final residual = 3.56296e-06, No Iterations 1
smoothSolver:  Solving for Uy, Initial residual = 0.000385112, Final residual = 2.27944e-05, No Iterations 1
smoothSolver:  Solving for Uz, Initial residual = 0.000329033, Final residual = 3.60001e-06, No Iterations 1
GAMG:  Solving for p_rgh, Initial residual = 0.000494428, Final residual = 5.56825e-10, No Iterations 15
PIMPLE: iteration 3
smoothSolver:  Solving for alpha.water, Initial residual = 0.710504, Final residual = 0.494804, No Iterations 10
Phase-1 volume fraction = 1  Min(alpha.water) = 1  Max(alpha.water) = 1
MULES: Correcting alpha.water
MULES: Correcting alpha.water
Liquid phase volume fraction = 1  Min(alpha.water) = 1  Max(alpha.water) = 1
smoothSolver:  Solving for Ux, Initial residual = 0.000234941, Final residual = 1.95033e-07, No Iterations 2
smoothSolver:  Solving for Uy, Initial residual = 5.523e-05, Final residual = 1.86477e-07, No Iterations 2
smoothSolver:  Solving for Uz, Initial residual = 0.000232914, Final residual = 1.96197e-07, No Iterations 2
GAMG:  Solving for p_rgh, Initial residual = 0.000180791, Final residual = 5.30522e-10, No Iterations 13
smoothSolver:  Solving for epsilon, Initial residual = 9.115e-05, Final residual = 4.42541e-07, No Iterations 1
smoothSolver:  Solving for k, Initial residual = 0.100507, Final residual = 3.67538e-07, No Iterations 4
ExecutionTime = 135.19 s  ClockTime = 136 s

Courant Number mean: 0.00179841 max: 0.25195
deltaT = 5.79604e-05
Time = 0.000304475

PIMPLE: iteration 1
AMI: Creating addressing and weights between 18496 source faces and 18720 target faces
AMI: Patch source sum(weights) min/max/average = 0.984013, 1.01637, 1.00007
AMI: Patch target sum(weights) min/max/average = 0.958822, 1.00124, 0.999923
Execution time for mesh.update() = 1.05 s
GAMG:  Solving for pcorr, Initial residual = 1, Final residual = 0.00534367, No Iterations 8
time step continuity errors : sum local = 3.4494e-08, global = -4.62988e-09, cumulative = -1.54223e-08
smoothSolver:  Solving for alpha.water, Initial residual = 0.797831, Final residual = 0.50284, No Iterations 10
Phase-1 volume fraction = 1  Min(alpha.water) = 1  Max(alpha.water) = 1
MULES: Correcting alpha.water
MULES: Correcting alpha.water
Liquid phase volume fraction = 1  Min(alpha.water) = 1  Max(alpha.water) = 1
smoothSolver:  Solving for Ux, Initial residual = 0.102758, Final residual = 0.000250467, No Iterations 1
smoothSolver:  Solving for Uy, Initial residual = 0.901351, Final residual = 0.00117954, No Iterations 1
smoothSolver:  Solving for Uz, Initial residual = 0.10289, Final residual = 0.000253231, No Iterations 1
GAMG:  Solving for p_rgh, Initial residual = 0.00149576, Final residual = 6.08923e-10, No Iterations 16
PIMPLE: iteration 2
smoothSolver:  Solving for alpha.water, Initial residual = 0.708601, Final residual = 0.501861, No Iterations 10
Phase-1 volume fraction = 1  Min(alpha.water) = 1  Max(alpha.water) = 1
MULES: Correcting alpha.water
MULES: Correcting alpha.water
Liquid phase volume fraction = 1  Min(alpha.water) = 1  Max(alpha.water) = 1
smoothSolver:  Solving for Ux, Initial residual = 0.000528626, Final residual = 6.30038e-06, No Iterations 1
smoothSolver:  Solving for Uy, Initial residual = 0.000501218, Final residual = 3.16241e-05, No Iterations 1
smoothSolver:  Solving for Uz, Initial residual = 0.000526228, Final residual = 6.35268e-06, No Iterations 1
GAMG:  Solving for p_rgh, Initial residual = 0.000696121, Final residual = 8.30171e-10, No Iterations 15
PIMPLE: iteration 3
smoothSolver:  Solving for alpha.water, Initial residual = 0.73089, Final residual = 0.503014, No Iterations 10
Phase-1 volume fraction = 1  Min(alpha.water) = 1  Max(alpha.water) = 1
MULES: Correcting alpha.water
MULES: Correcting alpha.water
Liquid phase volume fraction = 1  Min(alpha.water) = 1  Max(alpha.water) = 1
smoothSolver:  Solving for Ux, Initial residual = 0.000328144, Final residual = 3.86729e-07, No Iterations 2
smoothSolver:  Solving for Uy, Initial residual = 8.20139e-05, Final residual = 3.50757e-07, No Iterations 2
smoothSolver:  Solving for Uz, Initial residual = 0.000325674, Final residual = 3.89321e-07, No Iterations 2
GAMG:  Solving for p_rgh, Initial residual = 0.000272455, Final residual = 5.31021e-10, No Iterations 14
smoothSolver:  Solving for epsilon, Initial residual = 0.000115237, Final residual = 7.05978e-07, No Iterations 1
smoothSolver:  Solving for k, Initial residual = 0.133676, Final residual = 2.16615e-07, No Iterations 5
ExecutionTime = 150.28 s  ClockTime = 151 s

Courant Number mean: 0.00256784 max: 0.355648
deltaT = 6.95525e-05
Time = 0.000374028

PIMPLE: iteration 1
AMI: Creating addressing and weights between 18496 source faces and 18720 target faces
AMI: Patch source sum(weights) min/max/average = 0.983108, 1.01685, 1.00007
AMI: Patch target sum(weights) min/max/average = 0.953479, 1.00126, 0.999909
Execution time for mesh.update() = 1.05 s
GAMG:  Solving for pcorr, Initial residual = 1, Final residual = 0.00536847, No Iterations 8
time step continuity errors : sum local = 4.97024e-08, global = -6.75408e-09, cumulative = -2.21764e-08
smoothSolver:  Solving for alpha.water, Initial residual = 0.818761, Final residual = 0.507169, No Iterations 10
Phase-1 volume fraction = 1  Min(alpha.water) = 1  Max(alpha.water) = 1
MULES: Correcting alpha.water
MULES: Correcting alpha.water
Liquid phase volume fraction = 1  Min(alpha.water) = 1  Max(alpha.water) = 1
smoothSolver:  Solving for Ux, Initial residual = 0.0995391, Final residual = 0.00032773, No Iterations 1
smoothSolver:  Solving for Uy, Initial residual = 0.898295, Final residual = 0.00154921, No Iterations 1
smoothSolver:  Solving for Uz, Initial residual = 0.0997134, Final residual = 0.000331158, No Iterations 1
GAMG:  Solving for p_rgh, Initial residual = 0.00133471, Final residual = 5.16833e-10, No Iterations 16
PIMPLE: iteration 2
smoothSolver:  Solving for alpha.water, Initial residual = 0.717554, Final residual = 0.505389, No Iterations 10
Phase-1 volume fraction = 1  Min(alpha.water) = 1  Max(alpha.water) = 1
MULES: Correcting alpha.water
MULES: Correcting alpha.water
Liquid phase volume fraction = 1  Min(alpha.water) = 1  Max(alpha.water) = 1
smoothSolver:  Solving for Ux, Initial residual = 0.000523316, Final residual = 5.28677e-06, No Iterations 1
smoothSolver:  Solving for Uy, Initial residual = 0.000665579, Final residual = 5.03318e-05, No Iterations 1
smoothSolver:  Solving for Uz, Initial residual = 0.000520548, Final residual = 5.34379e-06, No Iterations 1
GAMG:  Solving for p_rgh, Initial residual = 0.00091097, Final residual = 5.62733e-10, No Iterations 16
PIMPLE: iteration 3
smoothSolver:  Solving for alpha.water, Initial residual = 0.722448, Final residual = 0.493142, No Iterations 10
Phase-1 volume fraction = 1  Min(alpha.water) = 1  Max(alpha.water) = 1
MULES: Correcting alpha.water
MULES: Correcting alpha.water
Liquid phase volume fraction = 1  Min(alpha.water) = 1  Max(alpha.water) = 1
smoothSolver:  Solving for Ux, Initial residual = 0.00044573, Final residual = 3.6312e-07, No Iterations 2
smoothSolver:  Solving for Uy, Initial residual = 0.000117387, Final residual = 7.7512e-07, No Iterations 2
smoothSolver:  Solving for Uz, Initial residual = 0.000441813, Final residual = 3.66211e-07, No Iterations 2
GAMG:  Solving for p_rgh, Initial residual = 0.000363497, Final residual = 8.6422e-10, No Iterations 14
smoothSolver:  Solving for epsilon, Initial residual = 0.000151998, Final residual = 4.47481e-08, No Iterations 2
smoothSolver:  Solving for k, Initial residual = 0.0478379, Final residual = 9.37002e-07, No Iterations 4
ExecutionTime = 165.89 s  ClockTime = 167 s

Courant Number mean: 0.00378703 max: 0.514495
deltaT = 8.94246e-05
Time = 0.000463452

PIMPLE: iteration 1
AMI: Creating addressing and weights between 18496 source faces and 18720 target faces
AMI: Patch source sum(weights) min/max/average = 0.975097, 1.01738, 1.00007
AMI: Patch target sum(weights) min/max/average = 0.945068, 1.00127, 0.999885
Execution time for mesh.update() = 0.93 s
GAMG:  Solving for pcorr, Initial residual = 1, Final residual = 0.00543941, No Iterations 8
time step continuity errors : sum local = 8.26759e-08, global = -1.14771e-08, cumulative = -3.36535e-08
smoothSolver:  Solving for alpha.water, Initial residual = 0.798013, Final residual = 0.515409, No Iterations 10
Phase-1 volume fraction = 1  Min(alpha.water) = 1  Max(alpha.water) = 1
MULES: Correcting alpha.water
MULES: Correcting alpha.water
Liquid phase volume fraction = 1  Min(alpha.water) = 1  Max(alpha.water) = 1
smoothSolver:  Solving for Ux, Initial residual = 0.10244, Final residual = 0.000478474, No Iterations 1
smoothSolver:  Solving for Uy, Initial residual = 0.904101, Final residual = 0.00227289, No Iterations 1
smoothSolver:  Solving for Uz, Initial residual = 0.102573, Final residual = 0.000483247, No Iterations 1
GAMG:  Solving for p_rgh, Initial residual = 0.00280594, Final residual = 5.22643e-10, No Iterations 17
PIMPLE: iteration 2
smoothSolver:  Solving for alpha.water, Initial residual = 0.727893, Final residual = 0.503956, No Iterations 10
Phase-1 volume fraction = 1  Min(alpha.water) = 1  Max(alpha.water) = 1
MULES: Correcting alpha.water
MULES: Correcting alpha.water
Liquid phase volume fraction = 1  Min(alpha.water) = 1  Max(alpha.water) = 1
smoothSolver:  Solving for Ux, Initial residual = 0.00109092, Final residual = 1.16162e-05, No Iterations 1
smoothSolver:  Solving for Uy, Initial residual = 0.00118022, Final residual = 0.000106495, No Iterations 1
smoothSolver:  Solving for Uz, Initial residual = 0.00109309, Final residual = 1.16971e-05, No Iterations 1
GAMG:  Solving for p_rgh, Initial residual = 0.00149775, Final residual = 8.89607e-10, No Iterations 16
PIMPLE: iteration 3
smoothSolver:  Solving for alpha.water, Initial residual = 0.720467, Final residual = 0.508102, No Iterations 10
Phase-1 volume fraction = 1  Min(alpha.water) = 1  Max(alpha.water) = 1
MULES: Correcting alpha.water
MULES: Correcting alpha.water
Liquid phase volume fraction = 1  Min(alpha.water) = 1  Max(alpha.water) = 1
smoothSolver:  Solving for Ux, Initial residual = 0.000869563, Final residual = 2.49136e-07, No Iterations 3
smoothSolver:  Solving for Uy, Initial residual = 0.000250882, Final residual = 4.82549e-07, No Iterations 3
smoothSolver:  Solving for Uz, Initial residual = 0.000857037, Final residual = 2.5199e-07, No Iterations 3
GAMG:  Solving for p_rgh, Initial residual = 0.000663355, Final residual = 9.4918e-10, No Iterations 15
smoothSolver:  Solving for epsilon, Initial residual = 0.000216308, Final residual = 1.26655e-07, No Iterations 2
smoothSolver:  Solving for k, Initial residual = 0.0295366, Final residual = 4.12453e-07, No Iterations 5
ExecutionTime = 181.02 s  ClockTime = 182 s

Courant Number mean: 0.00602484 max: 0.795489
deltaT = 0.00010731
Time = 0.000570762

PIMPLE: iteration 1
AMI: Creating addressing and weights between 18496 source faces and 18720 target faces
AMI: Patch source sum(weights) min/max/average = 0.964521, 1.01761, 1.00006
AMI: Patch target sum(weights) min/max/average = 0.93282, 1.00127, 0.999846
Execution time for mesh.update() = 0.95 s
GAMG:  Solving for pcorr, Initial residual = 1, Final residual = 0.00544556, No Iterations 8
time step continuity errors : sum local = 1.20012e-07, global = -1.71747e-08, cumulative = -5.08282e-08
smoothSolver:  Solving for alpha.water, Initial residual = 0.806649, Final residual = 0.490837, No Iterations 10
Phase-1 volume fraction = 1  Min(alpha.water) = 1  Max(alpha.water) = 1
MULES: Correcting alpha.water
MULES: Correcting alpha.water
Liquid phase volume fraction = 1  Min(alpha.water) = 1  Max(alpha.water) = 1
smoothSolver:  Solving for Ux, Initial residual = 0.0981437, Final residual = 0.000590736, No Iterations 1
smoothSolver:  Solving for Uy, Initial residual = 0.900514, Final residual = 0.00303771, No Iterations 1
smoothSolver:  Solving for Uz, Initial residual = 0.0981466, Final residual = 0.000596681, No Iterations 1
GAMG:  Solving for p_rgh, Initial residual = 0.00229545, Final residual = 6.3037e-10, No Iterations 17
PIMPLE: iteration 2
smoothSolver:  Solving for alpha.water, Initial residual = 0.7185, Final residual = 0.509137, No Iterations 10
Phase-1 volume fraction = 1  Min(alpha.water) = 1  Max(alpha.water) = 1
MULES: Correcting alpha.water
MULES: Correcting alpha.water
Liquid phase volume fraction = 1  Min(alpha.water) = 1  Max(alpha.water) = 1
smoothSolver:  Solving for Ux, Initial residual = 0.0013818, Final residual = 5.12538e-05, No Iterations 1
smoothSolver:  Solving for Uy, Initial residual = 0.00191524, Final residual = 0.000186996, No Iterations 1
smoothSolver:  Solving for Uz, Initial residual = 0.00138064, Final residual = 5.16117e-05, No Iterations 1
GAMG:  Solving for p_rgh, Initial residual = 0.00185244, Final residual = 7.44611e-10, No Iterations 17
PIMPLE: iteration 3
smoothSolver:  Solving for alpha.water, Initial residual = 0.710853, Final residual = 0.50058, No Iterations 10
Phase-1 volume fraction = 1  Min(alpha.water) = 1  Max(alpha.water) = 1
MULES: Correcting alpha.water
MULES: Correcting alpha.water
Liquid phase volume fraction = 1  Min(alpha.water) = 1  Max(alpha.water) = 1
smoothSolver:  Solving for Ux, Initial residual = 0.00141298, Final residual = 4.52394e-07, No Iterations 4
smoothSolver:  Solving for Uy, Initial residual = 0.000518285, Final residual = 3.03792e-07, No Iterations 4
smoothSolver:  Solving for Uz, Initial residual = 0.0014115, Final residual = 4.55878e-07, No Iterations 4
GAMG:  Solving for p_rgh, Initial residual = 0.00110581, Final residual = 6.90692e-10, No Iterations 16
smoothSolver:  Solving for epsilon, Initial residual = 0.000287594, Final residual = 3.03061e-07, No Iterations 2
smoothSolver:  Solving for k, Initial residual = 0.0200005, Final residual = 6.83221e-07, No Iterations 5
ExecutionTime = 196.25 s  ClockTime = 197 s

Courant Number mean: 0.00890773 max: 1.14984
deltaT = 0.000143079
Time = 0.000713841

PIMPLE: iteration 1
AMI: Creating addressing and weights between 18496 source faces and 18720 target faces
AMI: Patch source sum(weights) min/max/average = 0.950336, 1.02045, 1.00007
AMI: Patch target sum(weights) min/max/average = 0.914792, 1.00172, 0.999795
Execution time for mesh.update() = 1.1 s
GAMG:  Solving for pcorr, Initial residual = 1, Final residual = 0.00547863, No Iterations 8
time step continuity errors : sum local = 2.12495e-07, global = -3.09017e-08, cumulative = -8.17299e-08
smoothSolver:  Solving for alpha.water, Initial residual = 0.806411, Final residual = 0.497949, No Iterations 10
Phase-1 volume fraction = 1  Min(alpha.water) = 1  Max(alpha.water) = 1
MULES: Correcting alpha.water
MULES: Correcting alpha.water
Liquid phase volume fraction = 1  Min(alpha.water) = 1  Max(alpha.water) = 1
smoothSolver:  Solving for Ux, Initial residual = 0.103901, Final residual = 0.00105872, No Iterations 1
smoothSolver:  Solving for Uy, Initial residual = 0.910514, Final residual = 0.0047911, No Iterations 1
smoothSolver:  Solving for Uz, Initial residual = 0.103939, Final residual = 0.00106773, No Iterations 1
GAMG:  Solving for p_rgh, Initial residual = 0.00392114, Final residual = 6.21118e-10, No Iterations 17
PIMPLE: iteration 2
smoothSolver:  Solving for alpha.water, Initial residual = 0.720809, Final residual = 0.511978, No Iterations 10
Phase-1 volume fraction = 1  Min(alpha.water) = 1  Max(alpha.water) = 1
MULES: Correcting alpha.water
MULES: Correcting alpha.water
Liquid phase volume fraction = 1  Min(alpha.water) = 1  Max(alpha.water) = 1
smoothSolver:  Solving for Ux, Initial residual = 0.00237882, Final residual = 5.95733e-05, No Iterations 1
smoothSolver:  Solving for Uy, Initial residual = 0.00356955, Final residual = 0.000103201, No Iterations 2
smoothSolver:  Solving for Uz, Initial residual = 0.00238525, Final residual = 5.97085e-05, No Iterations 1
GAMG:  Solving for p_rgh, Initial residual = 0.00309248, Final residual = 6.40967e-10, No Iterations 18
PIMPLE: iteration 3
smoothSolver:  Solving for alpha.water, Initial residual = 0.72058, Final residual = 0.507383, No Iterations 10
Phase-1 volume fraction = 1  Min(alpha.water) = 1  Max(alpha.water) = 1
MULES: Correcting alpha.water
MULES: Correcting alpha.water
Liquid phase volume fraction = 1  Min(alpha.water) = 1  Max(alpha.water) = 1
smoothSolver:  Solving for Ux, Initial residual = 0.00272534, Final residual = 8.1422e-07, No Iterations 4
smoothSolver:  Solving for Uy, Initial residual = 0.00120683, Final residual = 3.98707e-07, No Iterations 5
smoothSolver:  Solving for Uz, Initial residual = 0.00270799, Final residual = 8.21914e-07, No Iterations 4
GAMG:  Solving for p_rgh, Initial residual = 0.00209512, Final residual = 6.9381e-10, No Iterations 17
smoothSolver:  Solving for epsilon, Initial residual = 0.000431892, Final residual = 1.2976e-07, No Iterations 3
smoothSolver:  Solving for k, Initial residual = 0.0169371, Final residual = 7.18654e-07, No Iterations 6
ExecutionTime = 212.08 s  ClockTime = 213 s

Courant Number mean: 0.0148183 max: 1.92362
deltaT = 0.000143079
Time = 0.000856921

PIMPLE: iteration 1
AMI: Creating addressing and weights between 18496 source faces and 18720 target faces
AMI: Patch source sum(weights) min/max/average = 0.932851, 1.02947, 1.0001
AMI: Patch target sum(weights) min/max/average = 0.89813, 1.00227, 0.99976
Execution time for mesh.update() = 0.96 s
GAMG:  Solving for pcorr, Initial residual = 1, Final residual = 0.00535164, No Iterations 8
time step continuity errors : sum local = 2.14066e-07, global = -3.21934e-08, cumulative = -1.13923e-07
smoothSolver:  Solving for alpha.water, Initial residual = 0.719714, Final residual = 0.493704, No Iterations 10
Phase-1 volume fraction = 1  Min(alpha.water) = 1  Max(alpha.water) = 1
MULES: Correcting alpha.water
MULES: Correcting alpha.water
Liquid phase volume fraction = 1  Min(alpha.water) = 1  Max(alpha.water) = 1
smoothSolver:  Solving for Ux, Initial residual = 0.0828677, Final residual = 0.000857787, No Iterations 1
smoothSolver:  Solving for Uy, Initial residual = 0.883787, Final residual = 0.00496592, No Iterations 1
smoothSolver:  Solving for Uz, Initial residual = 0.0828065, Final residual = 0.000865793, No Iterations 1
GAMG:  Solving for p_rgh, Initial residual = 0.0079351, Final residual = 9.44844e-10, No Iterations 18
PIMPLE: iteration 2
smoothSolver:  Solving for alpha.water, Initial residual = 0.699854, Final residual = 0.491587, No Iterations 10
Phase-1 volume fraction = 1  Min(alpha.water) = 1  Max(alpha.water) = 1
MULES: Correcting alpha.water
MULES: Correcting alpha.water
Liquid phase volume fraction = 1  Min(alpha.water) = 1  Max(alpha.water) = 1
smoothSolver:  Solving for Ux, Initial residual = 0.004441, Final residual = 0.000267492, No Iterations 1
smoothSolver:  Solving for Uy, Initial residual = 0.00377049, Final residual = 9.56089e-05, No Iterations 2
smoothSolver:  Solving for Uz, Initial residual = 0.00445497, Final residual = 0.000268458, No Iterations 1
GAMG:  Solving for p_rgh, Initial residual = 0.00395419, Final residual = 7.58789e-10, No Iterations 18
PIMPLE: iteration 3
smoothSolver:  Solving for alpha.water, Initial residual = 0.708102, Final residual = 0.500736, No Iterations 10
Phase-1 volume fraction = 1  Min(alpha.water) = 1  Max(alpha.water) = 1
MULES: Correcting alpha.water
MULES: Correcting alpha.water
Liquid phase volume fraction = 1  Min(alpha.water) = 1  Max(alpha.water) = 1
smoothSolver:  Solving for Ux, Initial residual = 0.00363416, Final residual = 6.20996e-07, No Iterations 6
smoothSolver:  Solving for Uy, Initial residual = 0.00156819, Final residual = 5.45722e-07, No Iterations 5
smoothSolver:  Solving for Uz, Initial residual = 0.00363823, Final residual = 6.25342e-07, No Iterations 6
GAMG:  Solving for p_rgh, Initial residual = 0.00294848, Final residual = 5.87017e-10, No Iterations 18
smoothSolver:  Solving for epsilon, Initial residual = 0.000490841, Final residual = 1.92127e-07, No Iterations 3
smoothSolver:  Solving for k, Initial residual = 0.0114465, Final residual = 6.17793e-07, No Iterations 6
ExecutionTime = 227.75 s  ClockTime = 228 s

Courant Number mean: 0.0178738 max: 2.3749
deltaT = 0.000143079
Time = 0.001

PIMPLE: iteration 1
AMI: Creating addressing and weights between 18496 source faces and 18720 target faces
AMI: Patch source sum(weights) min/max/average = 0.920545, 1.03764, 1.00015
AMI: Patch target sum(weights) min/max/average = 0.885764, 1.00277, 0.999742
Execution time for mesh.update() = 0.93 s
GAMG:  Solving for pcorr, Initial residual = 1, Final residual = 0.00533412, No Iterations 8
time step continuity errors : sum local = 2.13564e-07, global = -3.23977e-08, cumulative = -1.46321e-07
smoothSolver:  Solving for alpha.water, Initial residual = 0.714966, Final residual = 0.509888, No Iterations 10
Phase-1 volume fraction = 1  Min(alpha.water) = 1  Max(alpha.water) = 1
MULES: Correcting alpha.water
MULES: Correcting alpha.water
Liquid phase volume fraction = 1  Min(alpha.water) = 1  Max(alpha.water) = 1
smoothSolver:  Solving for Ux, Initial residual = 0.0709295, Final residual = 0.00115088, No Iterations 1
smoothSolver:  Solving for Uy, Initial residual = 0.859919, Final residual = 0.00517558, No Iterations 1
smoothSolver:  Solving for Uz, Initial residual = 0.0710699, Final residual = 0.00115641, No Iterations 1
GAMG:  Solving for p_rgh, Initial residual = 0.00530324, Final residual = 5.52685e-10, No Iterations 17
PIMPLE: iteration 2
smoothSolver:  Solving for alpha.water, Initial residual = 0.714717, Final residual = 0.508732, No Iterations 10
Phase-1 volume fraction = 1  Min(alpha.water) = 1  Max(alpha.water) = 1
MULES: Correcting alpha.water
MULES: Correcting alpha.water
Liquid phase volume fraction = 1  Min(alpha.water) = 1  Max(alpha.water) = 1
smoothSolver:  Solving for Ux, Initial residual = 0.00241875, Final residual = 0.000124533, No Iterations 1
smoothSolver:  Solving for Uy, Initial residual = 0.00271296, Final residual = 7.9074e-05, No Iterations 2
smoothSolver:  Solving for Uz, Initial residual = 0.00240752, Final residual = 0.00012487, No Iterations 1
GAMG:  Solving for p_rgh, Initial residual = 0.0035489, Final residual = 7.03493e-10, No Iterations 18
PIMPLE: iteration 3
smoothSolver:  Solving for alpha.water, Initial residual = 0.711574, Final residual = 0.499613, No Iterations 10
Phase-1 volume fraction = 1  Min(alpha.water) = 1  Max(alpha.water) = 1
MULES: Correcting alpha.water
MULES: Correcting alpha.water
Liquid phase volume fraction = 1  Min(alpha.water) = 1  Max(alpha.water) = 1
smoothSolver:  Solving for Ux, Initial residual = 0.00250179, Final residual = 9.21434e-07, No Iterations 5
smoothSolver:  Solving for Uy, Initial residual = 0.000947322, Final residual = 3.23825e-07, No Iterations 5
smoothSolver:  Solving for Uz, Initial residual = 0.00249636, Final residual = 9.27014e-07, No Iterations 5
GAMG:  Solving for p_rgh, Initial residual = 0.00261698, Final residual = 5.21006e-10, No Iterations 17
smoothSolver:  Solving for epsilon, Initial residual = 0.00057028, Final residual = 3.02588e-07, No Iterations 3
smoothSolver:  Solving for k, Initial residual = 0.00855497, Final residual = 4.52841e-07, No Iterations 6
ExecutionTime = 243.23 s  ClockTime = 244 s

Courant Number mean: 0.0209265 max: 2.83891
deltaT = 0.0001
Time = 0.0011

PIMPLE: iteration 1
AMI: Creating addressing and weights between 18496 source faces and 18720 target faces
AMI: Patch source sum(weights) min/max/average = 0.917122, 1.04327, 1.00017
AMI: Patch target sum(weights) min/max/average = 0.881426, 1.00257, 0.999715
Execution time for mesh.update() = 0.92 s
GAMG:  Solving for pcorr, Initial residual = 1, Final residual = 0.00515124, No Iterations 8
time step continuity errors : sum local = 1.06073e-07, global = -1.60406e-08, cumulative = -1.62362e-07
smoothSolver:  Solving for alpha.water, Initial residual = 0.789056, Final residual = 0.514594, No Iterations 10
Phase-1 volume fraction = 1  Min(alpha.water) = 1  Max(alpha.water) = 1
MULES: Correcting alpha.water
MULES: Correcting alpha.water
Liquid phase volume fraction = 1  Min(alpha.water) = 1  Max(alpha.water) = 1
smoothSolver:  Solving for Ux, Initial residual = 0.0423482, Final residual = 0.000401539, No Iterations 1
smoothSolver:  Solving for Uy, Initial residual = 0.771972, Final residual = 0.00304996, No Iterations 1
smoothSolver:  Solving for Uz, Initial residual = 0.042471, Final residual = 0.000404058, No Iterations 1
GAMG:  Solving for p_rgh, Initial residual = 0.0167727, Final residual = 5.95629e-10, No Iterations 20
PIMPLE: iteration 2
smoothSolver:  Solving for alpha.water, Initial residual = 0.723342, Final residual = 0.494536, No Iterations 10
Phase-1 volume fraction = 1  Min(alpha.water) = 1  Max(alpha.water) = 1
MULES: Correcting alpha.water
MULES: Correcting alpha.water
Liquid phase volume fraction = 1  Min(alpha.water) = 1  Max(alpha.water) = 1
smoothSolver:  Solving for Ux, Initial residual = 0.00494535, Final residual = 0.0001628, No Iterations 1
smoothSolver:  Solving for Uy, Initial residual = 0.00142461, Final residual = 0.000113485, No Iterations 1
smoothSolver:  Solving for Uz, Initial residual = 0.00498005, Final residual = 0.000162968, No Iterations 1
GAMG:  Solving for p_rgh, Initial residual = 0.00456474, Final residual = 8.69888e-10, No Iterations 18
PIMPLE: iteration 3
smoothSolver:  Solving for alpha.water, Initial residual = 0.716579, Final residual = 0.507504, No Iterations 10
Phase-1 volume fraction = 1  Min(alpha.water) = 1  Max(alpha.water) = 1
MULES: Correcting alpha.water
MULES: Correcting alpha.water
Liquid phase volume fraction = 1  Min(alpha.water) = 1  Max(alpha.water) = 1
smoothSolver:  Solving for Ux, Initial residual = 0.00213091, Final residual = 6.00249e-07, No Iterations 5
smoothSolver:  Solving for Uy, Initial residual = 0.00051386, Final residual = 8.9338e-07, No Iterations 3
smoothSolver:  Solving for Uz, Initial residual = 0.00213065, Final residual = 6.02333e-07, No Iterations 5
GAMG:  Solving for p_rgh, Initial residual = 0.00267794, Final residual = 9.30583e-10, No Iterations 17
smoothSolver:  Solving for epsilon, Initial residual = 0.000469346, Final residual = 1.10061e-07, No Iterations 3
smoothSolver:  Solving for k, Initial residual = 0.0046946, Final residual = 9.19352e-07, No Iterations 4
ExecutionTime = 258.99 s  ClockTime = 260 s

Courant Number mean: 0.0162138 max: 2.24897
deltaT = 9e-05
Time = 0.00119

PIMPLE: iteration 1
AMI: Creating addressing and weights between 18496 source faces and 18720 target faces
AMI: Patch source sum(weights) min/max/average = 0.919061, 1.04722, 1.00018
AMI: Patch target sum(weights) min/max/average = 0.88173, 1.0027, 0.999695
Execution time for mesh.update() = 0.97 s
GAMG:  Solving for pcorr, Initial residual = 1, Final residual = 0.00530929, No Iterations 8
time step continuity errors : sum local = 8.54348e-08, global = -1.25006e-08, cumulative = -1.74862e-07
smoothSolver:  Solving for alpha.water, Initial residual = 0.804603, Final residual = 0.506181, No Iterations 10
Phase-1 volume fraction = 1  Min(alpha.water) = 1  Max(alpha.water) = 1
MULES: Correcting alpha.water
MULES: Correcting alpha.water
Liquid phase volume fraction = 1  Min(alpha.water) = 1  Max(alpha.water) = 1
smoothSolver:  Solving for Ux, Initial residual = 0.0368883, Final residual = 0.000491641, No Iterations 1
smoothSolver:  Solving for Uy, Initial residual = 0.732446, Final residual = 0.00263499, No Iterations 1
smoothSolver:  Solving for Uz, Initial residual = 0.0369214, Final residual = 0.000492254, No Iterations 1
GAMG:  Solving for p_rgh, Initial residual = 0.0052173, Final residual = 8.26224e-10, No Iterations 18
PIMPLE: iteration 2
smoothSolver:  Solving for alpha.water, Initial residual = 0.717704, Final residual = 0.509075, No Iterations 10
Phase-1 volume fraction = 1  Min(alpha.water) = 1  Max(alpha.water) = 1
MULES: Correcting alpha.water
MULES: Correcting alpha.water
Liquid phase volume fraction = 1  Min(alpha.water) = 1  Max(alpha.water) = 1
smoothSolver:  Solving for Ux, Initial residual = 0.00201977, Final residual = 8.576e-05, No Iterations 1
smoothSolver:  Solving for Uy, Initial residual = 0.000604929, Final residual = 5.32884e-05, No Iterations 1
smoothSolver:  Solving for Uz, Initial residual = 0.00201508, Final residual = 8.5694e-05, No Iterations 1
GAMG:  Solving for p_rgh, Initial residual = 0.00327723, Final residual = 8.10558e-10, No Iterations 18
PIMPLE: iteration 3
smoothSolver:  Solving for alpha.water, Initial residual = 0.715514, Final residual = 0.493515, No Iterations 10
Phase-1 volume fraction = 1  Min(alpha.water) = 1  Max(alpha.water) = 1
MULES: Correcting alpha.water
MULES: Correcting alpha.water
Liquid phase volume fraction = 1  Min(alpha.water) = 1  Max(alpha.water) = 1
smoothSolver:  Solving for Ux, Initial residual = 0.00123098, Final residual = 7.74276e-07, No Iterations 4
smoothSolver:  Solving for Uy, Initial residual = 0.000202072, Final residual = 3.79524e-07, No Iterations 3
smoothSolver:  Solving for Uz, Initial residual = 0.00123291, Final residual = 7.77106e-07, No Iterations 4
GAMG:  Solving for p_rgh, Initial residual = 0.00182441, Final residual = 6.25602e-10, No Iterations 17
smoothSolver:  Solving for epsilon, Initial residual = 0.000471211, Final residual = 9.22499e-08, No Iterations 3
smoothSolver:  Solving for k, Initial residual = 0.00359328, Final residual = 5.31064e-07, No Iterations 4
ExecutionTime = 274.62 s  ClockTime = 275 s

Courant Number mean: 0.0158193 max: 2.22583
deltaT = 8.1e-05
Time = 0.001271

PIMPLE: iteration 1
AMI: Creating addressing and weights between 18496 source faces and 18720 target faces
AMI: Patch source sum(weights) min/max/average = 0.925818, 1.04719, 1.00018
AMI: Patch target sum(weights) min/max/average = 0.886289, 1.00275, 0.999687
Execution time for mesh.update() = 0.9 s
GAMG:  Solving for pcorr, Initial residual = 1, Final residual = 0.0053524, No Iterations 8
time step continuity errors : sum local = 6.97547e-08, global = -1.01012e-08, cumulative = -1.84963e-07
smoothSolver:  Solving for alpha.water, Initial residual = 0.79525, Final residual = 0.504807, No Iterations 10
Phase-1 volume fraction = 1  Min(alpha.water) = 1  Max(alpha.water) = 1
MULES: Correcting alpha.water
MULES: Correcting alpha.water
Liquid phase volume fraction = 1  Min(alpha.water) = 1  Max(alpha.water) = 1
smoothSolver:  Solving for Ux, Initial residual = 0.0283659, Final residual = 0.000245105, No Iterations 1
smoothSolver:  Solving for Uy, Initial residual = 0.685717, Final residual = 0.00219887, No Iterations 1
smoothSolver:  Solving for Uz, Initial residual = 0.0283564, Final residual = 0.000245949, No Iterations 1
GAMG:  Solving for p_rgh, Initial residual = 0.00391623, Final residual = 6.69151e-10, No Iterations 17
PIMPLE: iteration 2
smoothSolver:  Solving for alpha.water, Initial residual = 0.718527, Final residual = 0.49819, No Iterations 10
Phase-1 volume fraction = 1  Min(alpha.water) = 1  Max(alpha.water) = 1
MULES: Correcting alpha.water
MULES: Correcting alpha.water
Liquid phase volume fraction = 1  Min(alpha.water) = 1  Max(alpha.water) = 1
smoothSolver:  Solving for Ux, Initial residual = 0.000948021, Final residual = 4.25427e-05, No Iterations 1
smoothSolver:  Solving for Uy, Initial residual = 0.000505034, Final residual = 4.16795e-05, No Iterations 1
smoothSolver:  Solving for Uz, Initial residual = 0.000945448, Final residual = 4.24399e-05, No Iterations 1
GAMG:  Solving for p_rgh, Initial residual = 0.0023556, Final residual = 6.15441e-10, No Iterations 17
PIMPLE: iteration 3
smoothSolver:  Solving for alpha.water, Initial residual = 0.729001, Final residual = 0.517986, No Iterations 10
Phase-1 volume fraction = 1  Min(alpha.water) = 1  Max(alpha.water) = 1
MULES: Correcting alpha.water
MULES: Correcting alpha.water
Liquid phase volume fraction = 1  Min(alpha.water) = 1  Max(alpha.water) = 1
smoothSolver:  Solving for Ux, Initial residual = 0.00070492, Final residual = 3.96161e-07, No Iterations 4
smoothSolver:  Solving for Uy, Initial residual = 0.000155231, Final residual = 2.13502e-07, No Iterations 3
smoothSolver:  Solving for Uz, Initial residual = 0.000704182, Final residual = 3.96726e-07, No Iterations 4
GAMG:  Solving for p_rgh, Initial residual = 0.0014662, Final residual = 7.57442e-10, No Iterations 16
smoothSolver:  Solving for epsilon, Initial residual = 0.000457285, Final residual = 8.95677e-07, No Iterations 2
smoothSolver:  Solving for k, Initial residual = 0.00282721, Final residual = 3.09107e-07, No Iterations 4
ExecutionTime = 289.78 s  ClockTime = 291 s

Courant Number mean: 0.015231 max: 2.17588
deltaT = 7.29e-05
Time = 0.0013439

PIMPLE: iteration 1
AMI: Creating addressing and weights between 18496 source faces and 18720 target faces
AMI: Patch source sum(weights) min/max/average = 0.92224, 1.04369, 1.00019
AMI: Patch target sum(weights) min/max/average = 0.883778, 1.00276, 0.999694
Execution time for mesh.update() = 0.98 s
GAMG:  Solving for pcorr, Initial residual = 1, Final residual = 0.00534169, No Iterations 8
time step continuity errors : sum local = 5.64046e-08, global = -8.07762e-09, cumulative = -1.93041e-07
smoothSolver:  Solving for alpha.water, Initial residual = 0.798046, Final residual = 0.496658, No Iterations 10
Phase-1 volume fraction = 1  Min(alpha.water) = 1  Max(alpha.water) = 1
MULES: Correcting alpha.water
MULES: Correcting alpha.water
Liquid phase volume fraction = 1  Min(alpha.water) = 1  Max(alpha.water) = 1
smoothSolver:  Solving for Ux, Initial residual = 0.0242541, Final residual = 0.000220001, No Iterations 1
smoothSolver:  Solving for Uy, Initial residual = 0.605925, Final residual = 0.00175017, No Iterations 1
smoothSolver:  Solving for Uz, Initial residual = 0.0242172, Final residual = 0.000220177, No Iterations 1
GAMG:  Solving for p_rgh, Initial residual = 0.00354838, Final residual = 8.51961e-10, No Iterations 15
PIMPLE: iteration 2
smoothSolver:  Solving for alpha.water, Initial residual = 0.71441, Final residual = 0.505362, No Iterations 10
Phase-1 volume fraction = 1  Min(alpha.water) = 1  Max(alpha.water) = 1
MULES: Correcting alpha.water
MULES: Correcting alpha.water
Liquid phase volume fraction = 1  Min(alpha.water) = 1  Max(alpha.water) = 1
smoothSolver:  Solving for Ux, Initial residual = 0.000584873, Final residual = 1.58207e-05, No Iterations 1
smoothSolver:  Solving for Uy, Initial residual = 0.00032422, Final residual = 2.51928e-05, No Iterations 1
smoothSolver:  Solving for Uz, Initial residual = 0.000584282, Final residual = 1.58076e-05, No Iterations 1
GAMG:  Solving for p_rgh, Initial residual = 0.00183974, Final residual = 5.65596e-10, No Iterations 17
PIMPLE: iteration 3
smoothSolver:  Solving for alpha.water, Initial residual = 0.732957, Final residual = 0.505942, No Iterations 10
Phase-1 volume fraction = 1  Min(alpha.water) = 1  Max(alpha.water) = 1
MULES: Correcting alpha.water
MULES: Correcting alpha.water
Liquid phase volume fraction = 1  Min(alpha.water) = 1  Max(alpha.water) = 1
smoothSolver:  Solving for Ux, Initial residual = 0.000418025, Final residual = 3.22314e-07, No Iterations 3
smoothSolver:  Solving for Uy, Initial residual = 8.39456e-05, Final residual = 6.3098e-07, No Iterations 2
smoothSolver:  Solving for Uz, Initial residual = 0.000418505, Final residual = 3.22786e-07, No Iterations 3
GAMG:  Solving for p_rgh, Initial residual = 0.000992127, Final residual = 7.34779e-10, No Iterations 15
smoothSolver:  Solving for epsilon, Initial residual = 0.000429018, Final residual = 6.82711e-07, No Iterations 2
smoothSolver:  Solving for k, Initial residual = 0.00227837, Final residual = 9.34972e-07, No Iterations 3
ExecutionTime = 304.48 s  ClockTime = 305 s

Courant Number mean: 0.0145124 max: 2.09949
deltaT = 7.29e-05
Time = 0.0014168

PIMPLE: iteration 1
AMI: Creating addressing and weights between 18496 source faces and 18720 target faces
AMI: Patch source sum(weights) min/max/average = 0.917502, 1.04541, 1.00018
AMI: Patch target sum(weights) min/max/average = 0.880975, 1.00323, 0.999714
Execution time for mesh.update() = 0.94 s
GAMG:  Solving for pcorr, Initial residual = 1, Final residual = 0.00539934, No Iterations 8
time step continuity errors : sum local = 5.62739e-08, global = -7.97174e-09, cumulative = -2.01013e-07
smoothSolver:  Solving for alpha.water, Initial residual = 0.738092, Final residual = 0.511818, No Iterations 10
Phase-1 volume fraction = 1  Min(alpha.water) = 1  Max(alpha.water) = 1
MULES: Correcting alpha.water
MULES: Correcting alpha.water
Liquid phase volume fraction = 1  Min(alpha.water) = 1  Max(alpha.water) = 1
smoothSolver:  Solving for Ux, Initial residual = 0.0226104, Final residual = 0.000200558, No Iterations 1
smoothSolver:  Solving for Uy, Initial residual = 0.557452, Final residual = 0.00165276, No Iterations 1
smoothSolver:  Solving for Uz, Initial residual = 0.0225778, Final residual = 0.000200819, No Iterations 1
GAMG:  Solving for p_rgh, Initial residual = 0.00431728, Final residual = 8.51716e-10, No Iterations 17
PIMPLE: iteration 2
smoothSolver:  Solving for alpha.water, Initial residual = 0.721695, Final residual = 0.522726, No Iterations 10
Phase-1 volume fraction = 1  Min(alpha.water) = 1  Max(alpha.water) = 1
MULES: Correcting alpha.water
MULES: Correcting alpha.water
Liquid phase volume fraction = 1  Min(alpha.water) = 1  Max(alpha.water) = 1
smoothSolver:  Solving for Ux, Initial residual = 0.000747135, Final residual = 1.26193e-05, No Iterations 1
smoothSolver:  Solving for Uy, Initial residual = 0.000299058, Final residual = 2.38993e-05, No Iterations 1
smoothSolver:  Solving for Uz, Initial residual = 0.000742855, Final residual = 1.25262e-05, No Iterations 1
GAMG:  Solving for p_rgh, Initial residual = 0.00204194, Final residual = 8.45265e-10, No Iterations 16
PIMPLE: iteration 3
smoothSolver:  Solving for alpha.water, Initial residual = 0.726425, Final residual = 0.500842, No Iterations 10
Phase-1 volume fraction = 1  Min(alpha.water) = 1  Max(alpha.water) = 1
MULES: Correcting alpha.water
MULES: Correcting alpha.water
Liquid phase volume fraction = 1  Min(alpha.water) = 1  Max(alpha.water) = 1
smoothSolver:  Solving for Ux, Initial residual = 0.000381673, Final residual = 2.45894e-07, No Iterations 3
smoothSolver:  Solving for Uy, Initial residual = 6.957e-05, Final residual = 5.54913e-07, No Iterations 2
smoothSolver:  Solving for Uz, Initial residual = 0.000380812, Final residual = 2.45378e-07, No Iterations 3
GAMG:  Solving for p_rgh, Initial residual = 0.000987233, Final residual = 5.11336e-10, No Iterations 15
smoothSolver:  Solving for epsilon, Initial residual = 0.000436101, Final residual = 7.11624e-07, No Iterations 2
smoothSolver:  Solving for k, Initial residual = 0.00208349, Final residual = 8.48083e-07, No Iterations 3
ExecutionTime = 319.3 s  ClockTime = 320 s

Courant Number mean: 0.0153035 max: 2.23946
deltaT = 6.48e-05
Time = 0.0014816

PIMPLE: iteration 1
AMI: Creating addressing and weights between 18496 source faces and 18720 target faces
AMI: Patch source sum(weights) min/max/average = 0.917566, 1.04483, 1.00016
AMI: Patch target sum(weights) min/max/average = 0.882273, 1.00304, 0.99972
Execution time for mesh.update() = 1.07 s
GAMG:  Solving for pcorr, Initial residual = 1, Final residual = 0.00534384, No Iterations 8
time step continuity errors : sum local = 4.46807e-08, global = -6.39292e-09, cumulative = -2.07406e-07
smoothSolver:  Solving for alpha.water, Initial residual = 0.800064, Final residual = 0.505717, No Iterations 10
Phase-1 volume fraction = 1  Min(alpha.water) = 1  Max(alpha.water) = 1
MULES: Correcting alpha.water
MULES: Correcting alpha.water
Liquid phase volume fraction = 1  Min(alpha.water) = 1  Max(alpha.water) = 1
smoothSolver:  Solving for Ux, Initial residual = 0.0187839, Final residual = 0.000143555, No Iterations 1
smoothSolver:  Solving for Uy, Initial residual = 0.438008, Final residual = 0.00114299, No Iterations 1
smoothSolver:  Solving for Uz, Initial residual = 0.0187554, Final residual = 0.000143705, No Iterations 1
GAMG:  Solving for p_rgh, Initial residual = 0.00506386, Final residual = 7.43543e-10, No Iterations 17
PIMPLE: iteration 2
smoothSolver:  Solving for alpha.water, Initial residual = 0.712806, Final residual = 0.5127, No Iterations 10
Phase-1 volume fraction = 1  Min(alpha.water) = 1  Max(alpha.water) = 1
MULES: Correcting alpha.water
MULES: Correcting alpha.water
Liquid phase volume fraction = 1  Min(alpha.water) = 1  Max(alpha.water) = 1
smoothSolver:  Solving for Ux, Initial residual = 0.000686643, Final residual = 1.43007e-05, No Iterations 1
smoothSolver:  Solving for Uy, Initial residual = 0.000264282, Final residual = 1.70832e-05, No Iterations 1
smoothSolver:  Solving for Uz, Initial residual = 0.000690779, Final residual = 1.42236e-05, No Iterations 1
GAMG:  Solving for p_rgh, Initial residual = 0.00188595, Final residual = 6.26244e-10, No Iterations 17
PIMPLE: iteration 3
smoothSolver:  Solving for alpha.water, Initial residual = 0.70298, Final residual = 0.505693, No Iterations 10
Phase-1 volume fraction = 1  Min(alpha.water) = 1  Max(alpha.water) = 1
MULES: Correcting alpha.water
MULES: Correcting alpha.water
Liquid phase volume fraction = 1  Min(alpha.water) = 1  Max(alpha.water) = 1
smoothSolver:  Solving for Ux, Initial residual = 0.000334311, Final residual = 8.56611e-07, No Iterations 2
smoothSolver:  Solving for Uy, Initial residual = 7.25243e-05, Final residual = 3.6366e-07, No Iterations 2
smoothSolver:  Solving for Uz, Initial residual = 0.000332423, Final residual = 8.53347e-07, No Iterations 2
GAMG:  Solving for p_rgh, Initial residual = 0.000982548, Final residual = 5.39815e-10, No Iterations 16
smoothSolver:  Solving for epsilon, Initial residual = 0.000387993, Final residual = 4.85353e-07, No Iterations 2
smoothSolver:  Solving for k, Initial residual = 0.00170702, Final residual = 5.07973e-07, No Iterations 3
ExecutionTime = 334.73 s  ClockTime = 336 s

Courant Number mean: 0.0142399 max: 2.1053
deltaT = 6.48e-05
Time = 0.0015464

PIMPLE: iteration 1
AMI: Creating addressing and weights between 18496 source faces and 18720 target faces
AMI: Patch source sum(weights) min/max/average = 0.922314, 1.03831, 1.00013
AMI: Patch target sum(weights) min/max/average = 0.887661, 1.00274, 0.999747
Execution time for mesh.update() = 1.11 s
GAMG:  Solving for pcorr, Initial residual = 1, Final residual = 0.00538539, No Iterations 8
time step continuity errors : sum local = 4.43882e-08, global = -6.25057e-09, cumulative = -2.13656e-07
smoothSolver:  Solving for alpha.water, Initial residual = 0.725207, Final residual = 0.491704, No Iterations 10
Phase-1 volume fraction = 1  Min(alpha.water) = 1  Max(alpha.water) = 1
MULES: Correcting alpha.water
MULES: Correcting alpha.water
Liquid phase volume fraction = 1  Min(alpha.water) = 1  Max(alpha.water) = 1
smoothSolver:  Solving for Ux, Initial residual = 0.0182069, Final residual = 0.000157507, No Iterations 1
smoothSolver:  Solving for Uy, Initial residual = 0.407498, Final residual = 0.00109099, No Iterations 1
smoothSolver:  Solving for Uz, Initial residual = 0.0181846, Final residual = 0.00015757, No Iterations 1
GAMG:  Solving for p_rgh, Initial residual = 0.00363658, Final residual = 5.65907e-10, No Iterations 18
PIMPLE: iteration 2
smoothSolver:  Solving for alpha.water, Initial residual = 0.720627, Final residual = 0.517244, No Iterations 10
Phase-1 volume fraction = 1  Min(alpha.water) = 1  Max(alpha.water) = 1
MULES: Correcting alpha.water
MULES: Correcting alpha.water
Liquid phase volume fraction = 1  Min(alpha.water) = 1  Max(alpha.water) = 1
smoothSolver:  Solving for Ux, Initial residual = 0.000541069, Final residual = 7.58296e-06, No Iterations 1
smoothSolver:  Solving for Uy, Initial residual = 0.000199058, Final residual = 1.44451e-05, No Iterations 1
smoothSolver:  Solving for Uz, Initial residual = 0.000536829, Final residual = 7.50671e-06, No Iterations 1
GAMG:  Solving for p_rgh, Initial residual = 0.00178373, Final residual = 5.60713e-10, No Iterations 17
PIMPLE: iteration 3
smoothSolver:  Solving for alpha.water, Initial residual = 0.718753, Final residual = 0.498962, No Iterations 10
Phase-1 volume fraction = 1  Min(alpha.water) = 1  Max(alpha.water) = 1
MULES: Correcting alpha.water
MULES: Correcting alpha.water
Liquid phase volume fraction = 1  Min(alpha.water) = 1  Max(alpha.water) = 1
smoothSolver:  Solving for Ux, Initial residual = 0.000255477, Final residual = 3.74465e-07, No Iterations 2
smoothSolver:  Solving for Uy, Initial residual = 4.26422e-05, Final residual = 2.78915e-07, No Iterations 2
smoothSolver:  Solving for Uz, Initial residual = 0.000254978, Final residual = 3.72774e-07, No Iterations 2
GAMG:  Solving for p_rgh, Initial residual = 0.000793771, Final residual = 8.30166e-10, No Iterations 15
smoothSolver:  Solving for epsilon, Initial residual = 0.000383468, Final residual = 4.9077e-07, No Iterations 2
smoothSolver:  Solving for k, Initial residual = 0.00159977, Final residual = 4.90639e-07, No Iterations 3
ExecutionTime = 350.3 s  ClockTime = 351 s

Courant Number mean: 0.0148647 max: 2.21728
deltaT = 5.67e-05
Time = 0.0016031

PIMPLE: iteration 1
AMI: Creating addressing and weights between 18496 source faces and 18720 target faces
AMI: Patch source sum(weights) min/max/average = 0.930871, 1.03, 1.00009
AMI: Patch target sum(weights) min/max/average = 0.895581, 1.00216, 0.999757
Execution time for mesh.update() = 1.14 s
GAMG:  Solving for pcorr, Initial residual = 1, Final residual = 0.00536635, No Iterations 8
time step continuity errors : sum local = 3.44588e-08, global = -4.86103e-09, cumulative = -2.18517e-07
smoothSolver:  Solving for alpha.water, Initial residual = 0.79734, Final residual = 0.500938, No Iterations 10
Phase-1 volume fraction = 1  Min(alpha.water) = 1  Max(alpha.water) = 1
MULES: Correcting alpha.water
MULES: Correcting alpha.water
Liquid phase volume fraction = 1  Min(alpha.water) = 1  Max(alpha.water) = 1
smoothSolver:  Solving for Ux, Initial residual = 0.0149, Final residual = 0.000103105, No Iterations 1
smoothSolver:  Solving for Uy, Initial residual = 0.321071, Final residual = 0.00073828, No Iterations 1
smoothSolver:  Solving for Uz, Initial residual = 0.0148877, Final residual = 0.000103238, No Iterations 1
GAMG:  Solving for p_rgh, Initial residual = 0.00602286, Final residual = 6.45594e-10, No Iterations 18
PIMPLE: iteration 2
smoothSolver:  Solving for alpha.water, Initial residual = 0.718846, Final residual = 0.499794, No Iterations 10
Phase-1 volume fraction = 1  Min(alpha.water) = 1  Max(alpha.water) = 1
MULES: Correcting alpha.water
MULES: Correcting alpha.water
Liquid phase volume fraction = 1  Min(alpha.water) = 1  Max(alpha.water) = 1
smoothSolver:  Solving for Ux, Initial residual = 0.000651506, Final residual = 1.10986e-05, No Iterations 1
smoothSolver:  Solving for Uy, Initial residual = 0.000186214, Final residual = 1.03928e-05, No Iterations 1
smoothSolver:  Solving for Uz, Initial residual = 0.000654543, Final residual = 1.10398e-05, No Iterations 1
GAMG:  Solving for p_rgh, Initial residual = 0.00190699, Final residual = 6.587e-10, No Iterations 17
PIMPLE: iteration 3
smoothSolver:  Solving for alpha.water, Initial residual = 0.711712, Final residual = 0.499035, No Iterations 10
Phase-1 volume fraction = 1  Min(alpha.water) = 1  Max(alpha.water) = 1
MULES: Correcting alpha.water
MULES: Correcting alpha.water
Liquid phase volume fraction = 1  Min(alpha.water) = 1  Max(alpha.water) = 1
smoothSolver:  Solving for Ux, Initial residual = 0.000259295, Final residual = 6.52348e-07, No Iterations 2
smoothSolver:  Solving for Uy, Initial residual = 4.9514e-05, Final residual = 1.96832e-07, No Iterations 2
smoothSolver:  Solving for Uz, Initial residual = 0.000258596, Final residual = 6.50152e-07, No Iterations 2
GAMG:  Solving for p_rgh, Initial residual = 0.000924643, Final residual = 6.03197e-10, No Iterations 16
smoothSolver:  Solving for epsilon, Initial residual = 0.000328797, Final residual = 3.10057e-07, No Iterations 2
smoothSolver:  Solving for k, Initial residual = 0.00131805, Final residual = 2.85899e-07, No Iterations 3
ExecutionTime = 365.78 s  ClockTime = 367 s

Courant Number mean: 0.0134953 max: 2.02908
deltaT = 5.67e-05
Time = 0.0016598

PIMPLE: iteration 1
AMI: Creating addressing and weights between 18496 source faces and 18720 target faces
AMI: Patch source sum(weights) min/max/average = 0.944108, 1.02253, 1.00007
AMI: Patch target sum(weights) min/max/average = 0.904725, 1.00168, 0.99978
Execution time for mesh.update() = 0.95 s
GAMG:  Solving for pcorr, Initial residual = 1, Final residual = 0.00538, No Iterations 8
time step continuity errors : sum local = 3.39866e-08, global = -4.7798e-09, cumulative = -2.23297e-07
smoothSolver:  Solving for alpha.water, Initial residual = 0.7256, Final residual = 0.504876, No Iterations 10
Phase-1 volume fraction = 1  Min(alpha.water) = 1  Max(alpha.water) = 1
MULES: Correcting alpha.water
MULES: Correcting alpha.water
Liquid phase volume fraction = 1  Min(alpha.water) = 1  Max(alpha.water) = 1
smoothSolver:  Solving for Ux, Initial residual = 0.0146851, Final residual = 0.000117241, No Iterations 1
smoothSolver:  Solving for Uy, Initial residual = 0.304219, Final residual = 0.000715197, No Iterations 1
smoothSolver:  Solving for Uz, Initial residual = 0.0146764, Final residual = 0.000117312, No Iterations 1
GAMG:  Solving for p_rgh, Initial residual = 0.00365282, Final residual = 7.67999e-10, No Iterations 17
PIMPLE: iteration 2
smoothSolver:  Solving for alpha.water, Initial residual = 0.713326, Final residual = 0.50998, No Iterations 10
Phase-1 volume fraction = 1  Min(alpha.water) = 1  Max(alpha.water) = 1
MULES: Correcting alpha.water
MULES: Correcting alpha.water
Liquid phase volume fraction = 1  Min(alpha.water) = 1  Max(alpha.water) = 1
smoothSolver:  Solving for Ux, Initial residual = 0.000448187, Final residual = 5.91944e-06, No Iterations 1
smoothSolver:  Solving for Uy, Initial residual = 0.000134574, Final residual = 8.42706e-06, No Iterations 1
smoothSolver:  Solving for Uz, Initial residual = 0.000444833, Final residual = 5.87214e-06, No Iterations 1
GAMG:  Solving for p_rgh, Initial residual = 0.00166506, Final residual = 5.86084e-10, No Iterations 17
PIMPLE: iteration 3
smoothSolver:  Solving for alpha.water, Initial residual = 0.717451, Final residual = 0.496427, No Iterations 10
[...]
GAMG:  Solving for p_rgh, Initial residual = 5.37348e-05, Final residual = 7.81977e-10, No Iterations 15
PIMPLE: iteration 3
smoothSolver:  Solving for alpha.water, Initial residual = 1.55011e-07, Final residual = 4.66499e-11, No Iterations 1
Phase-1 volume fraction = 1  Min(alpha.water) = 0.559009  Max(alpha.water) = 1
MULES: Correcting alpha.water
MULES: Correcting alpha.water
Liquid phase volume fraction = 1  Min(alpha.water) = 0.559009  Max(alpha.water) = 1
smoothSolver:  Solving for Ux, Initial residual = 5.54198e-06, Final residual = 6.17187e-08, No Iterations 1
smoothSolver:  Solving for Uy, Initial residual = 2.7349e-07, Final residual = 4.74348e-09, No Iterations 1
smoothSolver:  Solving for Uz, Initial residual = 5.47766e-06, Final residual = 6.13903e-08, No Iterations 1
GAMG:  Solving for p_rgh, Initial residual = 1.37926e-05, Final residual = 6.25188e-10, No Iterations 10
smoothSolver:  Solving for epsilon, Initial residual = 2.08654e-05, Final residual = 2.66143e-07, No Iterations 1
smoothSolver:  Solving for k, Initial residual = 6.278e-05, Final residual = 6.17099e-07, No Iterations 1
ExecutionTime = 6324.91 s  ClockTime = 6338 s

Courant Number mean: 0.0131839 max: 2.02725
deltaT = 1.00385e-05
Time = 0.00862858

PIMPLE: iteration 1
AMI: Creating addressing and weights between 18496 source faces and 18720 target faces
AMI: Patch source sum(weights) min/max/average = 0.918181, 1.044, 1.00012
AMI: Patch target sum(weights) min/max/average = 0.882957, 1.00281, 0.999705
Execution time for mesh.update() = 0.98 s
GAMG:  Solving for pcorr, Initial residual = 1, Final residual = 0.0061422, No Iterations 7
time step continuity errors : sum local = 3.9499e-08, global = 4.26745e-10, cumulative = -4.79601e-07
smoothSolver:  Solving for alpha.water, Initial residual = 1.51052e-07, Final residual = 5.5454e-11, No Iterations 1
Phase-1 volume fraction = 1  Min(alpha.water) = 0.558099  Max(alpha.water) = 1
MULES: Correcting alpha.water
MULES: Correcting alpha.water
Liquid phase volume fraction = 1  Min(alpha.water) = 0.558099  Max(alpha.water) = 1
smoothSolver:  Solving for Ux, Initial residual = 0.00219237, Final residual = 1.78694e-05, No Iterations 1
smoothSolver:  Solving for Uy, Initial residual = 0.00494467, Final residual = 5.33738e-06, No Iterations 1
smoothSolver:  Solving for Uz, Initial residual = 0.0021852, Final residual = 1.78564e-05, No Iterations 1
GAMG:  Solving for p_rgh, Initial residual = 0.00018566, Final residual = 5.29155e-10, No Iterations 19
PIMPLE: iteration 2
smoothSolver:  Solving for alpha.water, Initial residual = 1.52684e-07, Final residual = 5.27324e-11, No Iterations 1
Phase-1 volume fraction = 1  Min(alpha.water) = 0.557727  Max(alpha.water) = 1
MULES: Correcting alpha.water
MULES: Correcting alpha.water
Liquid phase volume fraction = 1  Min(alpha.water) = 0.557727  Max(alpha.water) = 1
smoothSolver:  Solving for Ux, Initial residual = 2.50648e-05, Final residual = 3.04872e-07, No Iterations 1
smoothSolver:  Solving for Uy, Initial residual = 1.92826e-06, Final residual = 2.43058e-08, No Iterations 1
smoothSolver:  Solving for Uz, Initial residual = 2.50541e-05, Final residual = 3.0176e-07, No Iterations 1
GAMG:  Solving for p_rgh, Initial residual = 5.45709e-05, Final residual = 4.39013e-10, No Iterations 17
PIMPLE: iteration 3
smoothSolver:  Solving for alpha.water, Initial residual = 1.48863e-07, Final residual = 4.83202e-11, No Iterations 1
Phase-1 volume fraction = 1  Min(alpha.water) = 0.557587  Max(alpha.water) = 1
MULES: Correcting alpha.water
MULES: Correcting alpha.water
Liquid phase volume fraction = 1  Min(alpha.water) = 0.557587  Max(alpha.water) = 1
smoothSolver:  Solving for Ux, Initial residual = 4.96573e-06, Final residual = 5.78311e-08, No Iterations 1
smoothSolver:  Solving for Uy, Initial residual = 2.70466e-07, Final residual = 4.58262e-09, No Iterations 1
smoothSolver:  Solving for Uz, Initial residual = 4.9019e-06, Final residual = 5.75333e-08, No Iterations 1
GAMG:  Solving for p_rgh, Initial residual = 1.37974e-05, Final residual = 8.36856e-10, No Iterations 12
smoothSolver:  Solving for epsilon, Initial residual = 2.03103e-05, Final residual = 2.50089e-07, No Iterations 1
smoothSolver:  Solving for k, Initial residual = 6.11429e-05, Final residual = 5.81677e-07, No Iterations 1
ExecutionTime = 6339.44 s  ClockTime = 6352 s

Courant Number mean: 0.0128521 max: 1.97753
deltaT = 1.00385e-05
Time = 0.00863861

PIMPLE: iteration 1
AMI: Creating addressing and weights between 18496 source faces and 18720 target faces
AMI: Patch source sum(weights) min/max/average = 0.916719, 1.04643, 1.00016
AMI: Patch target sum(weights) min/max/average = 0.880783, 1.00358, 0.999706
Execution time for mesh.update() = 1.16 s
GAMG:  Solving for pcorr, Initial residual = 1, Final residual = 0.00623597, No Iterations 7
time step continuity errors : sum local = 4.00708e-08, global = 3.712e-10, cumulative = -4.7923e-07
smoothSolver:  Solving for alpha.water, Initial residual = 1.48382e-07, Final residual = 5.66779e-11, No Iterations 1
Phase-1 volume fraction = 1  Min(alpha.water) = 0.55689  Max(alpha.water) = 1
MULES: Correcting alpha.water
MULES: Correcting alpha.water
Liquid phase volume fraction = 1  Min(alpha.water) = 0.55689  Max(alpha.water) = 1
smoothSolver:  Solving for Ux, Initial residual = 0.00219317, Final residual = 1.79326e-05, No Iterations 1
smoothSolver:  Solving for Uy, Initial residual = 0.00494395, Final residual = 5.33606e-06, No Iterations 1
smoothSolver:  Solving for Uz, Initial residual = 0.00218614, Final residual = 1.79178e-05, No Iterations 1
GAMG:  Solving for p_rgh, Initial residual = 0.000116212, Final residual = 4.89206e-10, No Iterations 17
PIMPLE: iteration 2
smoothSolver:  Solving for alpha.water, Initial residual = 1.47992e-07, Final residual = 5.35232e-11, No Iterations 1
Phase-1 volume fraction = 1  Min(alpha.water) = 0.556558  Max(alpha.water) = 1
MULES: Correcting alpha.water
MULES: Correcting alpha.water
Liquid phase volume fraction = 1  Min(alpha.water) = 0.556558  Max(alpha.water) = 1
smoothSolver:  Solving for Ux, Initial residual = 2.11366e-05, Final residual = 2.90399e-07, No Iterations 1
smoothSolver:  Solving for Uy, Initial residual = 1.72269e-06, Final residual = 2.20494e-08, No Iterations 1
smoothSolver:  Solving for Uz, Initial residual = 2.09299e-05, Final residual = 2.88326e-07, No Iterations 1
GAMG:  Solving for p_rgh, Initial residual = 4.59607e-05, Final residual = 6.79217e-10, No Iterations 10
PIMPLE: iteration 3
smoothSolver:  Solving for alpha.water, Initial residual = 1.46179e-07, Final residual = 5.00056e-11, No Iterations 1
Phase-1 volume fraction = 1  Min(alpha.water) = 0.556391  Max(alpha.water) = 1
MULES: Correcting alpha.water
MULES: Correcting alpha.water
Liquid phase volume fraction = 1  Min(alpha.water) = 0.556391  Max(alpha.water) = 1
smoothSolver:  Solving for Ux, Initial residual = 3.69449e-06, Final residual = 5.03241e-08, No Iterations 1
smoothSolver:  Solving for Uy, Initial residual = 2.22262e-07, Final residual = 3.80421e-09, No Iterations 1
smoothSolver:  Solving for Uz, Initial residual = 3.6179e-06, Final residual = 5.01861e-08, No Iterations 1
GAMG:  Solving for p_rgh, Initial residual = 1.13892e-05, Final residual = 7.00196e-10, No Iterations 15
smoothSolver:  Solving for epsilon, Initial residual = 2.0303e-05, Final residual = 2.50801e-07, No Iterations 1
smoothSolver:  Solving for k, Initial residual = 6.11617e-05, Final residual = 5.83723e-07, No Iterations 1
ExecutionTime = 6353.44 s  ClockTime = 6366 s

Courant Number mean: 0.0128672 max: 1.98102
deltaT = 1.00385e-05
Time = 0.00864865

PIMPLE: iteration 1
AMI: Creating addressing and weights between 18496 source faces and 18720 target faces
AMI: Patch source sum(weights) min/max/average = 0.918963, 1.04678, 1.00018
AMI: Patch target sum(weights) min/max/average = 0.881563, 1.00374, 0.999691
Execution time for mesh.update() = 1.07 s
GAMG:  Solving for pcorr, Initial residual = 1, Final residual = 0.00613921, No Iterations 7
time step continuity errors : sum local = 4.04731e-08, global = 3.42804e-10, cumulative = -4.78887e-07
smoothSolver:  Solving for alpha.water, Initial residual = 1.45541e-07, Final residual = 5.75245e-11, No Iterations 1
Phase-1 volume fraction = 1  Min(alpha.water) = 0.555832  Max(alpha.water) = 1
MULES: Correcting alpha.water
MULES: Correcting alpha.water
Liquid phase volume fraction = 1  Min(alpha.water) = 0.555832  Max(alpha.water) = 1
smoothSolver:  Solving for Ux, Initial residual = 0.00219325, Final residual = 1.79924e-05, No Iterations 1
smoothSolver:  Solving for Uy, Initial residual = 0.00492807, Final residual = 5.32693e-06, No Iterations 1
smoothSolver:  Solving for Uz, Initial residual = 0.00218621, Final residual = 1.79761e-05, No Iterations 1
GAMG:  Solving for p_rgh, Initial residual = 0.000148311, Final residual = 6.44175e-10, No Iterations 16
PIMPLE: iteration 2
smoothSolver:  Solving for alpha.water, Initial residual = 1.46619e-07, Final residual = 5.57747e-11, No Iterations 1
Phase-1 volume fraction = 1  Min(alpha.water) = 0.555364  Max(alpha.water) = 1
MULES: Correcting alpha.water
MULES: Correcting alpha.water
Liquid phase volume fraction = 1  Min(alpha.water) = 0.555364  Max(alpha.water) = 1
smoothSolver:  Solving for Ux, Initial residual = 2.21423e-05, Final residual = 3.04011e-07, No Iterations 1
smoothSolver:  Solving for Uy, Initial residual = 1.8111e-06, Final residual = 2.35688e-08, No Iterations 1
smoothSolver:  Solving for Uz, Initial residual = 2.1933e-05, Final residual = 3.02804e-07, No Iterations 1
GAMG:  Solving for p_rgh, Initial residual = 5.12933e-05, Final residual = 7.90031e-10, No Iterations 15
PIMPLE: iteration 3
smoothSolver:  Solving for alpha.water, Initial residual = 1.44671e-07, Final residual = 5.19877e-11, No Iterations 1
Phase-1 volume fraction = 1  Min(alpha.water) = 0.555184  Max(alpha.water) = 1
MULES: Correcting alpha.water
MULES: Correcting alpha.water
Liquid phase volume fraction = 1  Min(alpha.water) = 0.555184  Max(alpha.water) = 1
smoothSolver:  Solving for Ux, Initial residual = 3.86874e-06, Final residual = 5.377e-08, No Iterations 1
smoothSolver:  Solving for Uy, Initial residual = 2.41814e-07, Final residual = 4.23454e-09, No Iterations 1
smoothSolver:  Solving for Uz, Initial residual = 3.80612e-06, Final residual = 5.3865e-08, No Iterations 1
GAMG:  Solving for p_rgh, Initial residual = 1.25946e-05, Final residual = 9.78833e-10, No Iterations 14
smoothSolver:  Solving for epsilon, Initial residual = 2.02952e-05, Final residual = 2.51302e-07, No Iterations 1
smoothSolver:  Solving for k, Initial residual = 6.11629e-05, Final residual = 5.84954e-07, No Iterations 1
ExecutionTime = 6367.79 s  ClockTime = 6381 s

Courant Number mean: 0.0128823 max: 1.98472
deltaT = 1.00385e-05
Time = 0.00865869

PIMPLE: iteration 1
AMI: Creating addressing and weights between 18496 source faces and 18720 target faces
AMI: Patch source sum(weights) min/max/average = 0.924875, 1.04713, 1.00018
AMI: Patch target sum(weights) min/max/average = 0.88551, 1.00384, 0.999699
Execution time for mesh.update() = 1.06 s
GAMG:  Solving for pcorr, Initial residual = 1, Final residual = 0.00625941, No Iterations 7
time step continuity errors : sum local = 4.10087e-08, global = 3.66931e-10, cumulative = -4.7852e-07
smoothSolver:  Solving for alpha.water, Initial residual = 1.44098e-07, Final residual = 5.96641e-11, No Iterations 1
Phase-1 volume fraction = 1  Min(alpha.water) = 0.55459  Max(alpha.water) = 1
MULES: Correcting alpha.water
MULES: Correcting alpha.water
Liquid phase volume fraction = 1  Min(alpha.water) = 0.55459  Max(alpha.water) = 1
smoothSolver:  Solving for Ux, Initial residual = 0.00219149, Final residual = 1.80335e-05, No Iterations 1
smoothSolver:  Solving for Uy, Initial residual = 0.00491323, Final residual = 5.32389e-06, No Iterations 1
smoothSolver:  Solving for Uz, Initial residual = 0.00218461, Final residual = 1.80211e-05, No Iterations 1
GAMG:  Solving for p_rgh, Initial residual = 0.000124879, Final residual = 6.50564e-10, No Iterations 20
PIMPLE: iteration 2
smoothSolver:  Solving for alpha.water, Initial residual = 1.41873e-07, Final residual = 5.57432e-11, No Iterations 1
Phase-1 volume fraction = 1  Min(alpha.water) = 0.554207  Max(alpha.water) = 1
MULES: Correcting alpha.water
MULES: Correcting alpha.water
Liquid phase volume fraction = 1  Min(alpha.water) = 0.554207  Max(alpha.water) = 1
smoothSolver:  Solving for Ux, Initial residual = 2.1315e-05, Final residual = 2.94526e-07, No Iterations 1
smoothSolver:  Solving for Uy, Initial residual = 1.83446e-06, Final residual = 2.2977e-08, No Iterations 1
smoothSolver:  Solving for Uz, Initial residual = 2.10936e-05, Final residual = 2.92556e-07, No Iterations 1
GAMG:  Solving for p_rgh, Initial residual = 4.7651e-05, Final residual = 8.02475e-10, No Iterations 19
PIMPLE: iteration 3
smoothSolver:  Solving for alpha.water, Initial residual = 1.40712e-07, Final residual = 5.26225e-11, No Iterations 1
Phase-1 volume fraction = 1  Min(alpha.water) = 0.554078  Max(alpha.water) = 1
MULES: Correcting alpha.water
MULES: Correcting alpha.water
Liquid phase volume fraction = 1  Min(alpha.water) = 0.554078  Max(alpha.water) = 1
smoothSolver:  Solving for Ux, Initial residual = 4.06549e-06, Final residual = 5.23819e-08, No Iterations 1
smoothSolver:  Solving for Uy, Initial residual = 2.4561e-07, Final residual = 4.04807e-09, No Iterations 1
smoothSolver:  Solving for Uz, Initial residual = 4.00931e-06, Final residual = 5.21164e-08, No Iterations 1
GAMG:  Solving for p_rgh, Initial residual = 1.20688e-05, Final residual = 9.80801e-10, No Iterations 14
smoothSolver:  Solving for epsilon, Initial residual = 2.02868e-05, Final residual = 2.5183e-07, No Iterations 1
smoothSolver:  Solving for k, Initial residual = 6.11758e-05, Final residual = 5.86281e-07, No Iterations 1
ExecutionTime = 6382.83 s  ClockTime = 6396 s

Courant Number mean: 0.0128974 max: 1.98839
deltaT = 1.00385e-05
Time = 0.00866873

PIMPLE: iteration 1
AMI: Creating addressing and weights between 18496 source faces and 18720 target faces
AMI: Patch source sum(weights) min/max/average = 0.92306, 1.04739, 1.00017
AMI: Patch target sum(weights) min/max/average = 0.884219, 1.00381, 0.9997
Execution time for mesh.update() = 1.01 s
GAMG:  Solving for pcorr, Initial residual = 1, Final residual = 0.00616931, No Iterations 7
time step continuity errors : sum local = 4.14863e-08, global = 2.97087e-10, cumulative = -4.78223e-07
smoothSolver:  Solving for alpha.water, Initial residual = 1.39741e-07, Final residual = 5.9592e-11, No Iterations 1
Phase-1 volume fraction = 1  Min(alpha.water) = 0.553574  Max(alpha.water) = 1
MULES: Correcting alpha.water
MULES: Correcting alpha.water
Liquid phase volume fraction = 1  Min(alpha.water) = 0.553574  Max(alpha.water) = 1
smoothSolver:  Solving for Ux, Initial residual = 0.00219313, Final residual = 1.8098e-05, No Iterations 1
smoothSolver:  Solving for Uy, Initial residual = 0.00491072, Final residual = 5.32267e-06, No Iterations 1
smoothSolver:  Solving for Uz, Initial residual = 0.00218609, Final residual = 1.80846e-05, No Iterations 1
GAMG:  Solving for p_rgh, Initial residual = 0.000128626, Final residual = 8.61127e-10, No Iterations 20
PIMPLE: iteration 2
smoothSolver:  Solving for alpha.water, Initial residual = 1.50076e-07, Final residual = 6.00509e-11, No Iterations 1
Phase-1 volume fraction = 1  Min(alpha.water) = 0.552966  Max(alpha.water) = 1
MULES: Correcting alpha.water
MULES: Correcting alpha.water
Liquid phase volume fraction = 1  Min(alpha.water) = 0.552966  Max(alpha.water) = 1
smoothSolver:  Solving for Ux, Initial residual = 2.29895e-05, Final residual = 3.08455e-07, No Iterations 1
smoothSolver:  Solving for Uy, Initial residual = 1.90507e-06, Final residual = 2.42558e-08, No Iterations 1
smoothSolver:  Solving for Uz, Initial residual = 2.27386e-05, Final residual = 3.03786e-07, No Iterations 1
GAMG:  Solving for p_rgh, Initial residual = 5.45127e-05, Final residual = 4.97903e-10, No Iterations 15
PIMPLE: iteration 3
smoothSolver:  Solving for alpha.water, Initial residual = 1.45816e-07, Final residual = 5.51282e-11, No Iterations 1
Phase-1 volume fraction = 1  Min(alpha.water) = 0.552739  Max(alpha.water) = 1
MULES: Correcting alpha.water
MULES: Correcting alpha.water
Liquid phase volume fraction = 1  Min(alpha.water) = 0.552739  Max(alpha.water) = 1
smoothSolver:  Solving for Ux, Initial residual = 4.33317e-06, Final residual = 5.79734e-08, No Iterations 1
smoothSolver:  Solving for Uy, Initial residual = 2.51588e-07, Final residual = 4.30627e-09, No Iterations 1
smoothSolver:  Solving for Uz, Initial residual = 4.265e-06, Final residual = 5.70312e-08, No Iterations 1
GAMG:  Solving for p_rgh, Initial residual = 1.35589e-05, Final residual = 9.11429e-10, No Iterations 13
smoothSolver:  Solving for epsilon, Initial residual = 2.02806e-05, Final residual = 2.52385e-07, No Iterations 1
smoothSolver:  Solving for k, Initial residual = 6.11948e-05, Final residual = 5.88079e-07, No Iterations 1
ExecutionTime = 6397.37 s  ClockTime = 6410 s

Courant Number mean: 0.0129125 max: 1.99189
deltaT = 1.00385e-05
Time = 0.00867877

PIMPLE: iteration 1
AMI: Creating addressing and weights between 18496 source faces and 18720 target faces
AMI: Patch source sum(weights) min/max/average = 0.918042, 1.04619, 1.00017
AMI: Patch target sum(weights) min/max/average = 0.881064, 1.00371, 0.999692
Execution time for mesh.update() = 1.22 s
GAMG:  Solving for pcorr, Initial residual = 1, Final residual = 0.00625096, No Iterations 7
time step continuity errors : sum local = 4.23197e-08, global = 4.58019e-10, cumulative = -4.77765e-07
smoothSolver:  Solving for alpha.water, Initial residual = 1.44164e-07, Final residual = 6.27949e-11, No Iterations 1
Phase-1 volume fraction = 1  Min(alpha.water) = 0.552069  Max(alpha.water) = 1
MULES: Correcting alpha.water
MULES: Correcting alpha.water
Liquid phase volume fraction = 1  Min(alpha.water) = 0.552069  Max(alpha.water) = 1
smoothSolver:  Solving for Ux, Initial residual = 0.00219893, Final residual = 1.81574e-05, No Iterations 1
smoothSolver:  Solving for Uy, Initial residual = 0.00488412, Final residual = 5.31045e-06, No Iterations 1
smoothSolver:  Solving for Uz, Initial residual = 0.00219162, Final residual = 1.81382e-05, No Iterations 1
GAMG:  Solving for p_rgh, Initial residual = 0.000129398, Final residual = 6.39279e-10, No Iterations 23
PIMPLE: iteration 2
smoothSolver:  Solving for alpha.water, Initial residual = 1.42265e-07, Final residual = 5.97328e-11, No Iterations 1
Phase-1 volume fraction = 1  Min(alpha.water) = 0.551514  Max(alpha.water) = 1
MULES: Correcting alpha.water
MULES: Correcting alpha.water
Liquid phase volume fraction = 1  Min(alpha.water) = 0.551514  Max(alpha.water) = 1
smoothSolver:  Solving for Ux, Initial residual = 2.08321e-05, Final residual = 3.01918e-07, No Iterations 1
smoothSolver:  Solving for Uy, Initial residual = 1.81589e-06, Final residual = 2.35382e-08, No Iterations 1
smoothSolver:  Solving for Uz, Initial residual = 2.0656e-05, Final residual = 2.98902e-07, No Iterations 1
GAMG:  Solving for p_rgh, Initial residual = 4.78985e-05, Final residual = 4.80258e-10, No Iterations 17
PIMPLE: iteration 3
smoothSolver:  Solving for alpha.water, Initial residual = 1.38271e-07, Final residual = 5.47544e-11, No Iterations 1
Phase-1 volume fraction = 1  Min(alpha.water) = 0.551389  Max(alpha.water) = 1
MULES: Correcting alpha.water
MULES: Correcting alpha.water
Liquid phase volume fraction = 1  Min(alpha.water) = 0.551389  Max(alpha.water) = 1
smoothSolver:  Solving for Ux, Initial residual = 4.21205e-06, Final residual = 5.72141e-08, No Iterations 1
smoothSolver:  Solving for Uy, Initial residual = 2.59166e-07, Final residual = 4.37926e-09, No Iterations 1
smoothSolver:  Solving for Uz, Initial residual = 4.15157e-06, Final residual = 5.66093e-08, No Iterations 1
